<?xml version="1.0" encoding="UTF-8"?>
<!-- generated on 2019-04-30 22:13:16.160618 by $Id$ via randomTrips.py
  options: 
-->
<routes xmlns:xsi="http://www.w3.org/2001/XMLSchema-instance" xsi:noNamespaceSchemaLocation="http://sumo.dlr.de/xsd/routes_file.xsd">
    <vType id="passenger" speedFactor="normc(1.00,0.10,0.20,2.00)" vClass="passenger">
    </vType>
    <trip id="veh0" depart="0.00" departLane="best" from="446784161" to="-25795349#1" type="passenger"/>
    <trip id="veh1" depart="59.64" departLane="best" from="553564813#0" to="-339557020#0" type="passenger"/>
    <trip id="veh3" depart="178.91" departLane="best" from="458503767#3" to="33651840#1" type="passenger"/>
    <trip id="veh4" depart="238.55" departLane="best" from="339557020#0" to="-25795349#1" type="passenger"/>
    <trip id="veh5" depart="298.19" departLane="best" from="-458503767#3" to="-339557020#0" type="passenger"/>
    <trip id="veh6" depart="357.83" departLane="best" from="-458503768#2" to="-33651839#0" type="passenger"/>
    <trip id="veh7" depart="417.46" departLane="best" from="-458503767#3" to="4674896#2" type="passenger"/>
    <trip id="veh8" depart="477.10" departLane="best" from="-458503768#2" to="-33651839#0" type="passenger"/>
    <trip id="veh9" depart="536.74" departLane="best" from="553564813#0" to="-339557020#0" type="passenger"/>
    <trip id="veh10" depart="596.38" departLane="best" from="-458503768#2" to="-33651839#0" type="passenger"/>
    <trip id="veh12" depart="715.65" departLane="best" from="339557020#1" to="25795349#2" type="passenger"/>
    <trip id="veh13" depart="775.29" departLane="best" from="-458503767#3" to="33651840#1" type="passenger"/>
    <trip id="veh14" depart="834.93" departLane="best" from="25795349#0" to="4674896#2" type="passenger"/>
    <trip id="veh15" depart="894.57" departLane="best" from="553564813#0" to="-33651839#0" type="passenger"/>
    <trip id="veh16" depart="954.20" departLane="best" from="553564813#0" to="4674896#1" type="passenger"/>
    <trip id="veh17" depart="1013.84" departLane="best" from="-458503767#3" to="33651840#1" type="passenger"/>
    <trip id="veh18" depart="1073.48" departLane="best" from="-25795349#3" to="-339557020#0" type="passenger"/>
    <trip id="veh19" depart="1133.12" departLane="best" from="-25795349#4" to="4674896#2" type="passenger"/>
    <trip id="veh20" depart="1192.75" departLane="best" from="553564813#0" to="458503768#1" type="passenger"/>
    <trip id="veh21" depart="1252.39" departLane="best" from="553564813#0" to="4674896#2" type="passenger"/>
    <trip id="veh22" depart="1312.03" departLane="best" from="339557020#0" to="-25795349#9" type="passenger"/>
    <trip id="veh23" depart="1371.67" departLane="best" from="25795349#0" to="33651796#1" type="passenger"/>
    <trip id="veh24" depart="1431.30" departLane="best" from="25795349#0" to="33651796#1" type="passenger"/>
    <trip id="veh25" depart="1490.94" departLane="best" from="-458503767#3" to="4674896#2" type="passenger"/>
    <trip id="veh27" depart="1610.22" departLane="best" from="-458503767#3" to="33651840#1" type="passenger"/>
    <trip id="veh28" depart="1669.86" departLane="best" from="553564813#0" to="33651796#1" type="passenger"/>
    <trip id="veh29" depart="1729.49" departLane="best" from="25795349#0" to="458503768#1" type="passenger"/>
    <trip id="veh30" depart="1789.13" departLane="best" from="-4652077#1" to="-339557020#0" type="passenger"/>
    <trip id="veh31" depart="1848.77" departLane="best" from="25795349#0" to="-339557020#0" type="passenger"/>
    <trip id="veh32" depart="1908.41" departLane="best" from="-458503767#3" to="4674896#2" type="passenger"/>
    <trip id="veh33" depart="1968.04" departLane="best" from="25795349#0" to="4674896#1" type="passenger"/>
    <trip id="veh35" depart="2087.32" departLane="best" from="25795349#4" to="458503768#1" type="passenger"/>
    <trip id="veh36" depart="2146.96" departLane="best" from="553564813#0" to="-33651839#0" type="passenger"/>
    <trip id="veh37" depart="2206.59" departLane="best" from="25795349#2" to="4674896#2" type="passenger"/>
    <trip id="veh38" depart="2266.23" departLane="best" from="-458503767#3" to="4674896#2" type="passenger"/>
    <trip id="veh39" depart="2325.87" departLane="best" from="553564813#0" to="4674896#2" type="passenger"/>
    <trip id="veh41" depart="2445.15" departLane="best" from="-458503767#3" to="33651840#1" type="passenger"/>
    <trip id="veh42" depart="2504.78" departLane="best" from="25795349#0" to="4674896#2" type="passenger"/>
    <trip id="veh43" depart="2564.42" departLane="best" from="25795349#0" to="-339557020#0" type="passenger"/>
    <trip id="veh44" depart="2624.06" departLane="best" from="-25795349#3" to="458503768#1" type="passenger"/>
    <trip id="veh45" depart="2683.70" departLane="best" from="553564813#0" to="33651796#1" type="passenger"/>
    <trip id="veh46" depart="2743.33" departLane="best" from="-458503767#3" to="4674896#2" type="passenger"/>
    <trip id="veh47" depart="2802.97" departLane="best" from="553564813#0" to="-33651839#0" type="passenger"/>
    <trip id="veh48" depart="2862.61" departLane="best" from="-4652077#1" to="33651840#1" type="passenger"/>
    <trip id="veh49" depart="2922.25" departLane="best" from="339557020#1" to="-25795349#3" type="passenger"/>
    <trip id="veh50" depart="2981.89" departLane="best" from="25795349#0" to="-339557020#0" type="passenger"/>
    <trip id="veh52" depart="3101.16" departLane="best" from="553564813#0" to="-33651839#0" type="passenger"/>
    <trip id="veh53" depart="3160.80" departLane="best" from="-25795349#3" to="4674896#2" type="passenger"/>
    <trip id="veh54" depart="3220.44" departLane="best" from="-458503768#2" to="-25795349#1" type="passenger"/>
    <trip id="veh55" depart="3280.07" departLane="best" from="-4652077#1" to="-339557020#0" type="passenger"/>
    <trip id="veh56" depart="3339.71" departLane="best" from="553564813#0" to="33651840#1" type="passenger"/>
    <trip id="veh57" depart="3399.35" departLane="best" from="553564813#0" to="33651840#1" type="passenger"/>
    <trip id="veh58" depart="3458.99" departLane="best" from="-25795349#3" to="-339557020#0" type="passenger"/>
    <trip id="veh59" depart="3518.62" departLane="best" from="25795349#0" to="33651796#1" type="passenger"/>
    <trip id="veh60" depart="3578.26" departLane="best" from="25795349#0" to="4674896#2" type="passenger"/>
</routes>
