<?xml version="1.0" encoding="UTF-8"?>

<!-- generated on 04/30/19 22:13:15 by Eclipse SUMO netconvert Version 1.2.0
<configuration xmlns:xsi="http://www.w3.org/2001/XMLSchema-instance" xsi:noNamespaceSchemaLocation="http://sumo.dlr.de/xsd/netconvertConfiguration.xsd">

    <input>
        <type-files value="C:\Program%20Files%20(x86)\Eclipse\Sumo\data\typemap\osmNetconvert.typ.xml"/>
        <osm-files value="osm_bbox.osm.xml"/>
    </input>

    <output>
        <output-file value="C:\Users\abuba\src\sumo-win64-0.32.0\tools\2019-04-30-22-13-14\osm.net.xml"/>
        <output.street-names value="true"/>
        <output.original-names value="true"/>
    </output>

    <projection>
        <proj.utm value="true"/>
    </projection>

    <processing>
        <geometry.remove value="true"/>
        <roundabouts.guess value="true"/>
    </processing>

    <tls_building>
        <tls.discard-simple value="true"/>
        <tls.join value="true"/>
        <tls.guess-signals value="true"/>
        <tls.default-type value="actuated"/>
    </tls_building>

    <ramp_guessing>
        <ramps.guess value="true"/>
    </ramp_guessing>

    <junctions>
        <junctions.join value="true"/>
        <junctions.corner-detail value="5"/>
    </junctions>

    <report>
        <verbose value="true"/>
    </report>

</configuration>
-->

<net version="1.1" junctionCornerDetail="5" limitTurnSpeed="5.50" xmlns:xsi="http://www.w3.org/2001/XMLSchema-instance" xsi:noNamespaceSchemaLocation="http://sumo.dlr.de/xsd/net_file.xsd">

    <location netOffset="-628571.98,-4833745.00" convBoundary="0.00,0.00,2433.42,3070.25" origBoundary="-79.405167,43.645256,-79.375452,43.672957" projParameter="+proj=utm +zone=17 +ellps=WGS84 +datum=WGS84 +units=m +no_defs"/>

    <type id="highway.bridleway" priority="1" numLanes="1" speed="2.78" allow="pedestrian" oneway="1" width="2.00"/>
    <type id="highway.bus_guideway" priority="1" numLanes="1" speed="27.78" allow="bus" oneway="1"/>
    <type id="highway.cycleway" priority="1" numLanes="1" speed="8.33" allow="bicycle" oneway="0" width="1.00"/>
    <type id="highway.footway" priority="1" numLanes="1" speed="2.78" allow="pedestrian" oneway="1" width="2.00"/>
    <type id="highway.ford" priority="1" numLanes="1" speed="2.78" allow="army" oneway="0"/>
    <type id="highway.living_street" priority="2" numLanes="1" speed="2.78" disallow="tram rail_urban rail rail_electric ship" oneway="0"/>
    <type id="highway.motorway" priority="14" numLanes="2" speed="39.44" allow="private emergency authority army vip passenger hov taxi bus coach delivery truck trailer motorcycle evehicle custom1 custom2" oneway="1"/>
    <type id="highway.motorway_link" priority="9" numLanes="1" speed="22.22" allow="private emergency authority army vip passenger hov taxi bus coach delivery truck trailer motorcycle evehicle custom1 custom2" oneway="1"/>
    <type id="highway.path" priority="1" numLanes="1" speed="2.78" allow="bicycle pedestrian" oneway="1" width="2.00"/>
    <type id="highway.pedestrian" priority="1" numLanes="1" speed="2.78" allow="pedestrian" oneway="1" width="2.00"/>
    <type id="highway.primary" priority="12" numLanes="2" speed="27.78" disallow="tram rail_urban rail rail_electric ship" oneway="0"/>
    <type id="highway.primary_link" priority="7" numLanes="1" speed="22.22" disallow="tram rail_urban rail rail_electric ship" oneway="0"/>
    <type id="highway.raceway" priority="15" numLanes="2" speed="83.33" allow="vip" oneway="0"/>
    <type id="highway.residential" priority="3" numLanes="1" speed="13.89" disallow="tram rail_urban rail rail_electric ship" oneway="0"/>
    <type id="highway.secondary" priority="11" numLanes="2" speed="27.78" disallow="tram rail_urban rail rail_electric ship" oneway="0"/>
    <type id="highway.secondary_link" priority="6" numLanes="1" speed="22.22" disallow="tram rail_urban rail rail_electric ship" oneway="0"/>
    <type id="highway.service" priority="1" numLanes="1" speed="5.56" allow="delivery bicycle pedestrian" oneway="0"/>
    <type id="highway.stairs" priority="1" numLanes="1" speed="1.39" allow="pedestrian" oneway="1" width="2.00"/>
    <type id="highway.step" priority="1" numLanes="1" speed="1.39" allow="pedestrian" oneway="1" width="2.00"/>
    <type id="highway.steps" priority="1" numLanes="1" speed="1.39" allow="pedestrian" oneway="1" width="2.00"/>
    <type id="highway.tertiary" priority="10" numLanes="1" speed="22.22" disallow="tram rail_urban rail rail_electric ship" oneway="0"/>
    <type id="highway.tertiary_link" priority="5" numLanes="1" speed="22.22" disallow="tram rail_urban rail rail_electric ship" oneway="0"/>
    <type id="highway.track" priority="1" numLanes="1" speed="5.56" disallow="tram rail_urban rail rail_electric ship" oneway="0"/>
    <type id="highway.trunk" priority="13" numLanes="2" speed="27.78" disallow="tram rail_urban rail rail_electric bicycle pedestrian ship" oneway="0"/>
    <type id="highway.trunk_link" priority="8" numLanes="1" speed="22.22" disallow="tram rail_urban rail rail_electric bicycle pedestrian ship" oneway="0"/>
    <type id="highway.unclassified" priority="4" numLanes="1" speed="13.89" disallow="tram rail_urban rail rail_electric ship" oneway="0"/>
    <type id="highway.unsurfaced" priority="1" numLanes="1" speed="8.33" disallow="tram rail_urban rail rail_electric ship" oneway="0"/>
    <type id="railway.light_rail" priority="19" numLanes="1" speed="27.78" allow="rail_urban" oneway="1"/>
    <type id="railway.preserved" priority="16" numLanes="1" speed="27.78" allow="rail" oneway="1"/>
    <type id="railway.rail" priority="20" numLanes="1" speed="83.33" allow="rail rail_electric" oneway="1"/>
    <type id="railway.subway" priority="18" numLanes="1" speed="27.78" allow="rail_urban" oneway="1"/>
    <type id="railway.tram" priority="17" numLanes="1" speed="13.89" allow="tram" oneway="1"/>

    <edge id=":1305290536_0" function="internal">
        <lane id=":1305290536_0_0" index="0" disallow="tram rail_urban rail rail_electric ship" speed="8.33" length="6.19" shape="2008.58,778.06 2006.62,783.93"/>
    </edge>
    <edge id=":1305290536_1" function="internal">
        <lane id=":1305290536_1_0" index="0" allow="delivery bicycle pedestrian" speed="5.24" length="5.11" shape="2008.58,778.06 2007.96,779.24 2007.08,779.97 2005.92,780.25 2004.49,780.09"/>
    </edge>
    <edge id=":1305290539_0" function="internal">
        <lane id=":1305290539_0_0" index="0" allow="delivery bicycle pedestrian" speed="5.56" length="5.10" shape="1999.91,778.97 1994.95,777.77"/>
    </edge>
    <edge id=":1305290559_0" function="internal">
        <lane id=":1305290559_0_0" index="0" allow="bicycle pedestrian" speed="4.17" length="5.70" width="2.00" shape="1985.54,776.61 1983.84,776.69 1983.04,777.28 1983.16,778.38 1984.18,779.98"/>
    </edge>
    <edge id=":1305290559_1" function="internal">
        <lane id=":1305290559_1_0" index="0" allow="delivery bicycle pedestrian" speed="5.56" length="8.19" shape="1985.54,776.61 1983.12,776.47 1981.46,776.49 1979.79,776.61 1977.37,776.77"/>
    </edge>
    <edge id=":1305290559_2" function="internal">
        <lane id=":1305290559_2_0" index="0" allow="bicycle pedestrian" speed="2.78" length="8.75" width="2.00" shape="1978.52,773.31 1984.18,779.98"/>
    </edge>
    <edge id=":1305290559_3" function="internal">
        <lane id=":1305290559_3_0" index="0" allow="delivery bicycle pedestrian" speed="4.17" length="5.46" shape="1978.52,773.31 1979.55,774.75 1979.70,775.80 1978.98,776.48 1977.37,776.77"/>
    </edge>
    <edge id=":1895180032_0" function="internal">
        <lane id=":1895180032_0_0" index="0" allow="tram" speed="13.89" length="0.30" shape="1536.05,613.21 1536.34,613.30"/>
    </edge>
    <edge id=":26240542_0" function="internal">
        <lane id=":26240542_0_0" index="0" allow="tram" speed="13.89" length="0.59" shape="2092.45,1229.53 2092.33,1229.66 2092.25,1229.75 2092.15,1229.82 2092.00,1229.91"/>
    </edge>
    <edge id=":293309230_0" function="internal">
        <lane id=":293309230_0_0" index="0" disallow="tram rail_urban rail rail_electric ship" speed="3.65" length="4.67" shape="2086.63,928.29 2085.49,929.17 2084.60,929.30 2083.97,928.66 2083.59,927.27"/>
    </edge>
    <edge id=":29603229_0" function="internal">
        <lane id=":29603229_0_0" index="0" disallow="tram rail_urban rail rail_electric ship" speed="3.65" length="2.34" shape="1930.57,739.18 1929.68,738.05 1929.55,737.16"/>
    </edge>
    <edge id=":29603229_2" function="internal">
        <lane id=":29603229_2_0" index="0" disallow="tram rail_urban rail rail_electric ship" speed="3.65" length="2.34" shape="1929.55,737.16 1930.18,736.53 1931.57,736.14"/>
    </edge>
    <edge id=":29603229_1" function="internal">
        <lane id=":29603229_1_0" index="0" allow="tram" speed="13.89" length="2.97" shape="1928.23,736.77 1931.07,737.66"/>
    </edge>
    <edge id=":29687655_0" function="internal">
        <lane id=":29687655_0_0" index="0" disallow="tram rail_urban rail rail_electric ship" speed="3.65" length="4.67" shape="2292.90,610.50 2294.06,609.63 2294.94,609.52 2295.57,610.16 2295.92,611.56"/>
    </edge>
    <edge id=":29688117_0" function="internal">
        <lane id=":29688117_0_0" index="0" disallow="tram rail_urban rail rail_electric ship" speed="3.65" length="4.67" shape="2173.95,649.00 2175.09,648.11 2175.98,647.98 2176.61,648.62 2176.99,650.01"/>
    </edge>
    <edge id=":29688407_0" function="internal">
        <lane id=":29688407_0_0" index="0" disallow="tram rail_urban rail rail_electric ship" speed="3.65" length="4.67" shape="2164.64,1013.01 2163.50,1013.89 2162.61,1014.01 2161.98,1013.38 2161.60,1011.99"/>
    </edge>
    <edge id=":29824488_0" function="internal">
        <lane id=":29824488_0_0" index="0" allow="tram" speed="13.89" length="0.30" shape="1673.36,656.00 1673.65,656.09"/>
    </edge>
    <edge id=":3053872769_0" function="internal">
        <lane id=":3053872769_0_0" index="0" allow="delivery bicycle pedestrian" speed="3.65" length="4.67" shape="2231.23,697.11 2232.24,698.14 2232.47,699.00 2231.91,699.70 2230.57,700.24"/>
    </edge>
    <edge id=":3053872777_0" function="internal">
        <lane id=":3053872777_0_0" index="0" allow="delivery bicycle pedestrian" speed="5.56" length="4.69" shape="2253.23,706.48 2257.65,708.05"/>
    </edge>
    <edge id=":3053885183_0" function="internal">
        <lane id=":3053885183_0_0" index="0" allow="delivery bicycle pedestrian" speed="5.05" length="5.01" shape="2300.02,790.99 2298.67,790.75 2297.56,791.00 2296.71,791.74 2296.09,792.97"/>
    </edge>
    <edge id=":3053885183_1" function="internal">
        <lane id=":3053885183_1_0" index="0" allow="delivery bicycle pedestrian" speed="5.56" length="9.40" shape="2300.02,790.99 2291.09,788.03"/>
    </edge>
    <edge id=":3053885183_2" function="internal">
        <lane id=":3053885183_2_0" index="0" allow="delivery bicycle pedestrian" speed="3.65" length="4.67" shape="2300.02,790.99 2299.13,789.86 2299.00,788.97 2299.63,788.34 2301.02,787.96"/>
    </edge>
    <edge id=":3053885183_3" function="internal">
        <lane id=":3053885183_3_0" index="0" allow="delivery bicycle pedestrian" speed="5.56" length="9.40" shape="2292.10,784.99 2301.02,787.96"/>
    </edge>
    <edge id=":3053885183_4" function="internal">
        <lane id=":3053885183_4_0" index="0" allow="delivery bicycle pedestrian" speed="5.56" length="10.17" shape="2292.10,784.99 2294.60,786.24 2296.09,787.98 2296.59,790.23 2296.09,792.97"/>
    </edge>
    <edge id=":3053885183_5" function="internal">
        <lane id=":3053885183_5_0" index="0" allow="delivery bicycle pedestrian" speed="3.65" length="4.67" shape="2292.10,784.99 2292.99,786.13 2293.12,787.02 2292.49,787.65 2291.09,788.03"/>
    </edge>
    <edge id=":3053885183_6" function="internal">
        <lane id=":3053885183_6_0" index="0" allow="delivery bicycle pedestrian" speed="5.04" length="5.00" shape="2293.06,791.95 2293.30,790.60 2293.06,789.50 2292.32,788.64 2291.09,788.03"/>
    </edge>
    <edge id=":3053885183_7" function="internal">
        <lane id=":3053885183_7_0" index="0" allow="delivery bicycle pedestrian" speed="5.56" length="10.16" shape="2293.06,791.95 2294.30,789.46 2296.05,787.97 2298.29,787.46 2301.02,787.96"/>
    </edge>
    <edge id=":3053885183_8" function="internal">
        <lane id=":3053885183_8_0" index="0" allow="delivery bicycle pedestrian" speed="3.65" length="4.67" shape="2293.06,791.95 2294.19,791.07 2295.08,790.94 2295.71,791.58 2296.09,792.97"/>
    </edge>
    <edge id=":3053885187_0" function="internal">
        <lane id=":3053885187_0_0" index="0" allow="delivery bicycle pedestrian" speed="3.65" length="4.67" shape="2287.54,818.52 2286.40,819.40 2285.52,819.53 2284.88,818.89 2284.51,817.50"/>
    </edge>
    <edge id=":3053885188_0" function="internal">
        <lane id=":3053885188_0_0" index="0" allow="delivery bicycle pedestrian" speed="5.56" length="7.75" shape="2268.72,826.71 2266.82,825.76 2265.68,824.43 2265.30,822.72 2265.68,820.63"/>
    </edge>
    <edge id=":3053885188_1" function="internal">
        <lane id=":3053885188_1_0" index="0" allow="delivery bicycle pedestrian" speed="3.90" length="2.58" shape="2268.71,821.64 2268.59,822.34 2268.71,822.91 2269.09,823.35 2269.73,823.67"/>
    </edge>
    <edge id=":32547297_0" function="internal">
        <lane id=":32547297_0_0" index="0" allow="tram" speed="13.89" length="0.23" shape="1523.48,609.38 1523.70,609.45"/>
    </edge>
    <edge id=":32547299_0" function="internal">
        <lane id=":32547299_0_0" index="0" allow="tram" speed="13.89" length="0.30" shape="1549.98,617.44 1550.27,617.52"/>
    </edge>
    <edge id=":390998533_0" function="internal">
        <lane id=":390998533_0_0" index="0" disallow="tram rail_urban rail rail_electric ship" speed="27.78" length="3.02" shape="1947.92,748.22 1945.03,747.28"/>
        <lane id=":390998533_0_1" index="1" disallow="tram rail_urban rail rail_electric ship" speed="27.78" length="3.02" shape="1948.89,745.17 1946.03,744.24"/>
    </edge>
    <edge id=":390998533_2" function="internal">
        <lane id=":390998533_2_0" index="0" disallow="tram rail_urban rail rail_electric ship" speed="3.65" length="2.34" shape="1948.89,745.17 1947.99,744.04 1947.85,743.16"/>
    </edge>
    <edge id=":390998533_7" function="internal">
        <lane id=":390998533_7_0" index="0" disallow="tram rail_urban rail rail_electric ship" speed="3.65" length="2.34" shape="1947.85,743.16 1948.47,742.52 1949.86,742.12"/>
    </edge>
    <edge id=":390998533_3" function="internal">
        <lane id=":390998533_3_0" index="0" disallow="tram rail_urban rail rail_electric ship" speed="27.78" length="2.97" shape="1948.02,738.16 1950.83,739.07"/>
        <lane id=":390998533_3_1" index="1" disallow="tram rail_urban rail rail_electric ship" speed="27.78" length="2.97" shape="1947.02,741.20 1949.86,742.12"/>
    </edge>
    <edge id=":390998533_5" function="internal">
        <lane id=":390998533_5_0" index="0" disallow="tram rail_urban rail rail_electric ship" speed="3.65" length="2.34" shape="1947.02,741.20 1947.91,742.34 1948.04,743.22"/>
    </edge>
    <edge id=":390998533_8" function="internal">
        <lane id=":390998533_8_0" index="0" disallow="tram rail_urban rail rail_electric ship" speed="3.65" length="2.34" shape="1948.04,743.22 1947.42,743.86 1946.03,744.24"/>
    </edge>
    <edge id=":390998533_6" function="internal">
        <lane id=":390998533_6_0" index="0" allow="tram" speed="13.89" length="3.00" shape="1946.52,742.72 1949.38,743.64"/>
    </edge>
    <edge id=":391175817_0" function="internal">
        <lane id=":391175817_0_0" index="0" allow="tram" speed="13.89" length="0.29" shape="1561.28,620.81 1561.56,620.90"/>
    </edge>
    <edge id=":393546107_0" function="internal">
        <lane id=":393546107_0_0" index="0" allow="tram" speed="13.89" length="0.30" shape="1513.64,605.99 1513.92,606.09"/>
    </edge>
    <edge id=":394490760_0" function="internal">
        <lane id=":394490760_0_0" index="0" allow="tram" speed="13.89" length="0.30" shape="1665.85,653.67 1666.14,653.76"/>
    </edge>
    <edge id=":394490767_0" function="internal">
        <lane id=":394490767_0_0" index="0" allow="tram" speed="13.89" length="0.29" shape="1681.63,658.53 1681.91,658.62"/>
    </edge>
    <edge id=":412357055_0" function="internal">
        <lane id=":412357055_0_0" index="0" allow="tram" speed="13.89" length="0.29" shape="1904.03,729.47 1904.30,729.55"/>
    </edge>
    <edge id=":51084137_0" function="internal">
        <lane id=":51084137_0_0" index="0" disallow="tram rail_urban rail rail_electric ship" speed="27.78" length="5.34" shape="2070.42,787.64 2065.35,785.99"/>
        <lane id=":51084137_0_1" index="1" disallow="tram rail_urban rail rail_electric ship" speed="27.78" length="5.34" shape="2071.41,784.60 2066.34,782.95"/>
    </edge>
    <edge id=":51084137_2" function="internal">
        <lane id=":51084137_2_0" index="0" disallow="tram rail_urban rail rail_electric ship" speed="3.65" length="2.34" shape="2071.41,784.60 2070.52,783.47 2070.38,782.58"/>
    </edge>
    <edge id=":51084137_7" function="internal">
        <lane id=":51084137_7_0" index="0" disallow="tram rail_urban rail rail_electric ship" speed="3.65" length="2.34" shape="2070.38,782.58 2071.01,781.95 2072.40,781.56"/>
    </edge>
    <edge id=":51084137_3" function="internal">
        <lane id=":51084137_3_0" index="0" disallow="tram rail_urban rail rail_electric ship" speed="27.78" length="5.33" shape="2068.32,776.86 2073.39,778.51"/>
        <lane id=":51084137_3_1" index="1" disallow="tram rail_urban rail rail_electric ship" speed="27.78" length="5.33" shape="2067.33,779.91 2072.40,781.56"/>
    </edge>
    <edge id=":51084137_5" function="internal">
        <lane id=":51084137_5_0" index="0" disallow="tram rail_urban rail rail_electric ship" speed="3.65" length="2.34" shape="2067.33,779.91 2068.22,781.04 2068.36,781.92"/>
    </edge>
    <edge id=":51084137_8" function="internal">
        <lane id=":51084137_8_0" index="0" disallow="tram rail_urban rail rail_electric ship" speed="3.65" length="2.34" shape="2068.36,781.92 2067.73,782.56 2066.34,782.95"/>
    </edge>
    <edge id=":51084137_6" function="internal">
        <lane id=":51084137_6_0" index="0" allow="tram" speed="13.89" length="5.33" shape="2066.84,781.43 2071.91,783.08"/>
    </edge>
    <edge id=":6279501228_0" function="internal">
        <lane id=":6279501228_0_0" index="0" allow="tram" speed="13.89" length="6.89" shape="2227.32,837.92 2225.53,838.93 2224.29,839.63 2223.22,840.53 2221.97,842.11"/>
    </edge>
    <edge id=":6279501230_0" function="internal">
        <lane id=":6279501230_0_0" index="0" allow="tram" speed="13.89" length="0.45" shape="2217.58,839.51 2217.44,839.94"/>
    </edge>
    <edge id=":6279501231_0" function="internal">
        <lane id=":6279501231_0_0" index="0" allow="tram" speed="13.89" length="5.26" shape="2213.55,822.34 2215.12,822.49 2216.27,822.64 2217.31,822.46 2218.53,821.64"/>
    </edge>
    <edge id=":6279501232_0" function="internal">
        <lane id=":6279501232_0_0" index="0" allow="tram" speed="13.89" length="5.85" shape="2218.68,821.51 2219.99,820.37 2220.88,819.58 2221.72,818.74 2222.87,817.44"/>
    </edge>
    <edge id=":6279501235_0" function="internal">
        <lane id=":6279501235_0_0" index="0" allow="tram" speed="13.89" length="6.18" shape="2229.59,819.77 2229.42,821.61 2229.33,822.94 2229.62,824.14 2230.56,825.63"/>
    </edge>
    <edge id=":6279501239_0" function="internal">
        <lane id=":6279501239_0_0" index="0" allow="tram" speed="13.89" length="2.48" shape="2228.92,815.86 2228.13,818.22"/>
    </edge>
    <edge id=":6279501242_0" function="internal">
        <lane id=":6279501242_0_0" index="0" allow="tram" speed="13.89" length="2.97" shape="2218.12,848.83 2217.72,849.62 2217.46,850.16 2217.24,850.72 2216.96,851.56"/>
    </edge>
    <edge id=":6279501242_1" function="internal">
        <lane id=":6279501242_1_0" index="0" allow="tram" speed="13.89" length="2.96" shape="2217.89,848.75 2216.96,851.56"/>
    </edge>
    <edge id=":6279501243_0" function="internal">
        <lane id=":6279501243_0_0" index="0" allow="tram" speed="13.89" length="2.69" shape="2230.65,810.68 2230.42,811.44 2230.29,811.97 2230.22,812.52 2230.13,813.31"/>
    </edge>
    <edge id=":6279501243_1" function="internal">
        <lane id=":6279501243_1_0" index="0" allow="tram" speed="13.89" length="2.73" shape="2230.65,810.68 2229.79,813.27"/>
    </edge>
    <edge id=":6279501250_0" function="internal">
        <lane id=":6279501250_0_0" index="0" allow="tram" speed="13.89" length="1.75" shape="2225.95,815.03 2225.38,816.68"/>
    </edge>
    <edge id=":6279501250_1" function="internal">
        <lane id=":6279501250_1_0" index="0" allow="tram" speed="2.65" length="1.10" shape="2225.51,817.16 2225.55,816.66 2225.55,816.41 2225.49,816.42 2225.38,816.68"/>
    </edge>
    <edge id=":6279501262_0" function="internal">
        <lane id=":6279501262_0_0" index="0" allow="tram" speed="13.89" length="2.97" shape="2217.22,840.60 2216.30,843.43"/>
    </edge>
    <edge id=":6279501305_0" function="internal">
        <lane id=":6279501305_0_0" index="0" allow="tram" speed="13.89" length="7.40" shape="2240.19,755.20 2239.10,753.30 2238.22,752.08 2237.14,751.02 2235.44,749.64"/>
    </edge>
    <edge id=":6279501306_0" function="internal">
        <lane id=":6279501306_0_0" index="0" allow="tram" speed="13.89" length="6.64" shape="2241.51,761.75 2241.61,759.78 2241.55,758.41 2241.17,757.11 2240.29,755.38"/>
    </edge>
    <edge id=":6279501307_0" function="internal">
        <lane id=":6279501307_0_0" index="0" allow="tram" speed="13.89" length="5.00" shape="2244.78,756.86 2243.24,761.62"/>
    </edge>
    <edge id=":6279501310_0" function="internal">
        <lane id=":6279501310_0_0" index="0" allow="tram" speed="13.89" length="7.11" shape="2259.39,757.60 2257.28,757.49 2255.79,757.53 2254.41,757.98 2252.66,759.07"/>
    </edge>
    <edge id=":6279501317_0" function="internal">
        <lane id=":6279501317_0_0" index="0" allow="tram" speed="13.89" length="9.97" shape="2263.42,756.99 2253.94,753.90"/>
    </edge>
    <edge id=":6279501317_1" function="internal">
        <lane id=":6279501317_1_0" index="0" allow="tram" speed="13.89" length="11.26" shape="2263.42,756.99 2260.33,756.03 2257.98,755.11 2256.07,753.65 2254.32,751.09"/>
    </edge>
    <edge id=":6279501322_0" function="internal">
        <lane id=":6279501322_0_0" index="0" allow="tram" speed="13.89" length="2.79" shape="2240.92,768.88 2240.07,771.53"/>
    </edge>
    <edge id=":6279501332_0" function="internal">
        <lane id=":6279501332_0_0" index="0" allow="tram" speed="13.89" length="2.72" shape="2252.34,734.04 2251.49,736.62"/>
    </edge>
    <edge id=":6279501332_1" function="internal">
        <lane id=":6279501332_1_0" index="0" allow="tram" speed="2.86" length="1.62" shape="2251.76,736.66 2251.83,736.07 2251.81,735.87 2251.69,736.05 2251.49,736.62"/>
    </edge>
    <edge id=":6279501372_0" function="internal">
        <lane id=":6279501372_0_0" index="0" allow="tram" speed="13.89" length="6.63" shape="2252.50,759.19 2250.89,760.33 2249.84,761.17 2248.88,762.12 2247.57,763.58"/>
    </edge>
    <edge id=":6279501382_0" function="internal">
        <lane id=":6279501382_0_0" index="0" allow="tram" speed="13.89" length="6.06" shape="2307.40,613.02 2305.61,612.81 2304.38,612.75 2303.15,612.87 2301.39,613.21"/>
    </edge>
    <edge id=":6279501390_0" function="internal">
        <lane id=":6279501390_0_0" index="0" allow="tram" speed="13.89" length="102.77" shape="2299.90,613.58 2294.33,620.39 2285.97,638.42 2274.84,667.67 2260.93,708.15"/>
    </edge>
    <edge id=":6279501390_1" function="internal">
        <lane id=":6279501390_1_0" index="0" disallow="tram rail_urban rail rail_electric ship" speed="22.22" length="102.67" shape="2295.89,611.66 2263.94,709.23"/>
    </edge>
    <edge id=":6279501390_2" function="internal">
        <lane id=":6279501390_2_0" index="0" disallow="tram rail_urban rail rail_electric ship" speed="3.65" length="2.34" shape="2295.89,611.66 2294.73,612.52 2293.85,612.63"/>
    </edge>
    <edge id=":6279501390_5" function="internal">
        <lane id=":6279501390_5_0" index="0" disallow="tram rail_urban rail rail_electric ship" speed="3.65" length="2.34" shape="2293.85,612.63 2293.22,611.99 2292.87,610.59"/>
    </edge>
    <edge id=":6279501390_3" function="internal">
        <lane id=":6279501390_3_0" index="0" disallow="tram rail_urban rail rail_electric ship" speed="22.22" length="9.42" shape="2289.76,619.49 2292.87,610.59"/>
    </edge>
    <edge id=":6279501390_4" function="internal">
        <lane id=":6279501390_4_0" index="0" disallow="tram rail_urban rail rail_electric ship" speed="16.28" length="3.22" shape="2289.76,619.49 2291.84,621.94"/>
    </edge>
    <edge id=":6279501390_6" function="internal">
        <lane id=":6279501390_6_0" index="0" disallow="tram rail_urban rail rail_electric ship" speed="16.28" length="133.16" shape="2291.84,621.94 2316.96,651.61 2321.72,677.27 2304.05,696.48 2263.94,709.23"/>
    </edge>
    <edge id=":6279501548_0" function="internal">
        <lane id=":6279501548_0_0" index="0" allow="tram" speed="13.89" length="2.89" shape="2228.08,808.73 2227.16,811.48"/>
    </edge>
    <edge id=":6294585312_0" function="internal">
        <lane id=":6294585312_0_0" index="0" allow="tram" speed="13.89" length="2.78" shape="2269.27,758.91 2268.49,758.66 2267.94,758.52 2267.38,758.41 2266.57,758.27"/>
    </edge>
    <edge id=":6294585312_1" function="internal">
        <lane id=":6294585312_1_0" index="0" allow="tram" speed="13.89" length="2.80" shape="2269.27,758.91 2266.61,758.04"/>
    </edge>
    <edge id=":6294585316_0" function="internal">
        <lane id=":6294585316_0_0" index="0" allow="tram" speed="5.06" length="3.63" shape="2247.73,751.88 2247.17,751.91 2246.63,752.35 2246.10,753.21 2245.59,754.48"/>
    </edge>
    <edge id=":6294585316_1" function="internal">
        <lane id=":6294585316_1_0" index="0" allow="tram" speed="13.89" length="4.31" shape="2247.73,751.88 2243.63,750.55"/>
    </edge>
    <edge id=":6294585316_2" function="internal">
        <lane id=":6294585316_2_0" index="0" allow="tram" speed="13.89" length="4.06" shape="2246.90,750.63 2245.59,754.48"/>
    </edge>
    <edge id=":6294585316_3" function="internal">
        <lane id=":6294585316_3_0" index="0" allow="tram" speed="4.97" length="3.50" shape="2246.90,750.63 2246.39,751.06 2245.50,751.06 2244.50,750.83 2243.63,750.55"/>
    </edge>
    <edge id=":6294585317_0" function="internal">
        <lane id=":6294585317_0_0" index="0" allow="tram" speed="13.89" length="5.03" shape="2241.40,749.83 2236.61,748.31"/>
    </edge>
    <edge id=":6294585318_0" function="internal">
        <lane id=":6294585318_0_0" index="0" allow="tram" speed="13.89" length="3.04" shape="2229.32,746.39 2228.52,745.98 2227.96,745.71 2227.39,745.48 2226.54,745.20"/>
    </edge>
    <edge id=":6294585318_1" function="internal">
        <lane id=":6294585318_1_0" index="0" allow="tram" speed="13.89" length="3.02" shape="2229.42,746.09 2226.54,745.20"/>
    </edge>
    <edge id=":cluster_1308073690_1308073707_0" function="internal">
        <lane id=":cluster_1308073690_1308073707_0_0" index="0" allow="delivery bicycle pedestrian" speed="6.08" length="3.22" shape="2293.34,847.48 2292.72,850.64"/>
    </edge>
    <edge id=":cluster_1308073690_1308073707_1" function="internal">
        <lane id=":cluster_1308073690_1308073707_1_0" index="0" disallow="tram rail_urban rail rail_electric ship" speed="3.65" length="2.34" shape="2292.33,850.51 2293.21,851.66 2293.33,852.54"/>
    </edge>
    <edge id=":cluster_1308073690_1308073707_3" function="internal">
        <lane id=":cluster_1308073690_1308073707_3_0" index="0" allow="delivery bicycle pedestrian" speed="6.08" length="13.71" shape="2292.72,850.64 2290.08,864.10"/>
    </edge>
    <edge id=":cluster_1308073690_1308073707_4" function="internal">
        <lane id=":cluster_1308073690_1308073707_4_0" index="0" disallow="tram rail_urban rail rail_electric ship" speed="3.65" length="2.34" shape="2293.33,852.54 2292.70,853.17 2291.31,853.55"/>
    </edge>
    <edge id=":cluster_1308073690_1308073707_2" function="internal">
        <lane id=":cluster_1308073690_1308073707_2_0" index="0" allow="tram" speed="13.89" length="8.38" shape="2291.82,852.03 2299.80,854.59"/>
    </edge>
    <edge id=":cluster_1308073710_1308073715_29605043_394497173_394497179_6279501227_6279501229_6279501233_6279501234_6279501236_6279501237_6279501238_6279501240_6279501241_773006168_773006176_0" function="internal">
        <lane id=":cluster_1308073710_1308073715_29605043_394497173_394497179_6279501227_6279501229_6279501233_6279501234_6279501236_6279501237_6279501238_6279501240_6279501241_773006168_773006176_0_0" index="0" disallow="tram rail_urban rail rail_electric ship" speed="11.50" length="30.10" shape="2248.70,851.36 2243.84,849.76 2234.05,846.60 2224.38,843.67 2219.88,842.77"/>
    </edge>
    <edge id=":cluster_1308073710_1308073715_29605043_394497173_394497179_6279501227_6279501229_6279501233_6279501234_6279501236_6279501237_6279501238_6279501240_6279501241_773006168_773006176_1" function="internal">
        <lane id=":cluster_1308073710_1308073715_29605043_394497173_394497179_6279501227_6279501229_6279501233_6279501234_6279501236_6279501237_6279501238_6279501240_6279501241_773006168_773006176_1_0" index="0" disallow="tram rail_urban rail rail_electric ship" speed="16.67" length="60.24" shape="2248.70,851.36 2239.50,847.18 2223.19,839.20 2205.99,830.96 2194.08,825.99"/>
    </edge>