<?xml version="1.0" encoding="UTF-8"?>

<!-- generated on 04/30/19 22:13:15 by Eclipse SUMO polyconvert Version 1.2.0
<configuration xmlns:xsi="http://www.w3.org/2001/XMLSchema-instance" xsi:noNamespaceSchemaLocation="http://sumo.dlr.de/xsd/polyconvertConfiguration.xsd">

    <input>
        <net-file value="C:\Users\abuba\src\sumo-win64-0.32.0\tools\2019-04-30-22-13-14\osm.net.xml"/>
        <osm-files value="osm_bbox.osm.xml"/>
        <osm.keep-full-type value="true"/>
        <type-file value="C:\Program%20Files%20(x86)\Eclipse\Sumo\data\typemap\osmPolyconvert.typ.xml"/>
    </input>

    <output>
        <output-file value="C:\Users\abuba\src\sumo-win64-0.32.0\tools\2019-04-30-22-13-14\osm.poly.xml"/>
    </output>

    <processing>
        <poi-layer-offset value="5"/>
    </processing>

    <report>
        <verbose value="true"/>
    </report>

</configuration>
-->

<additional xmlns:xsi="http://www.w3.org/2001/XMLSchema-instance" xsi:noNamespaceSchemaLocation="http://sumo.dlr.de/xsd/additional_file.xsd">
    <location netOffset="-628571.98,-4833745.00" convBoundary="0.00,0.00,2433.42,3070.25" origBoundary="-79.405167,43.645256,-79.375452,43.672957" projParameter="+proj=utm +zone=17 +ellps=WGS84 +datum=WGS84 +units=m +no_defs"/>

    <poly id="104934501" type="building.yes" color="255,230,230" fill="1" layer="-1.00" shape="2141.926118,925.232841 2100.077857,912.216097 2106.840263,890.627023 2132.329217,898.646693 2149.014288,903.905709 2141.926118,925.232841"/>
    <poly id="104934673" type="building.yes" color="255,230,230" fill="1" layer="-1.00" shape="2161.678890,887.020648 2155.212768,884.350003 2114.225180,871.449992 2117.660984,860.339875 2191.891157,884.100043 2194.512716,884.940123 2175.359808,944.462891 2155.117163,937.556601 2153.799828,936.853121 2152.772764,935.744221 2152.235872,934.733782 2151.915588,933.372037 2151.984115,931.929003 2152.389994,930.148132 2155.554118,919.732690 2153.072841,917.906526 2155.433922,911.019664 2153.663258,910.396212 2161.678890,887.020648"/>
    <poly id="104934674" type="building.yes" color="255,230,230" fill="1" layer="-1.00" shape="2149.014288,903.905709 2132.329217,898.646693 2106.840263,890.627023 2105.910248,890.331097 2112.100547,870.775196 2114.225180,871.449992 2155.212768,884.350003 2149.014288,903.905709"/>
    <poly id="137918746" type="building.yes" color="255,230,230" fill="1" layer="-1.00" shape="2270.962585,717.998394 2279.220202,693.005541 2303.243986,700.897192 2298.708181,714.607807 2296.728237,713.958005 2292.998281,725.240059 2270.962585,717.998394"/>
    <poly id="160884331" type="building.office" color="255,230,230" fill="1" layer="-1.00" shape="2251.820704,703.035982 2235.323278,697.647070 2229.174826,695.638094 2233.445956,682.666671 2220.387462,678.400522 2181.508530,665.696910 2185.393898,653.884532 2189.596326,641.122843 2217.877849,650.363977 2235.377594,656.072417 2237.435927,649.824075 2268.034067,659.821784 2253.632390,703.626928 2251.820704,703.035982"/>
    <poly id="178090074" type="building.office" color="255,230,230" fill="1" layer="-1.00" shape="2226.879092,784.611030 2211.084779,779.580340 2212.957612,773.739457 2204.042249,770.898685 2203.458066,772.720511 2157.125056,757.971444 2158.121481,754.868844 2152.212603,752.986833 2158.570286,733.134254 2235.522317,757.625767 2226.879092,784.611030"/>
    <poly id="178252359" type="landuse.grass" color="194,194,130" fill="1" layer="-3.00" shape="1970.058764,764.207966 1991.628720,770.517372 1995.382035,772.068307 1996.498895,772.712289 1996.441625,773.166704 1996.239848,773.584968 1995.910993,773.900757 1995.503663,774.103910 1991.239361,773.520733 1988.164233,773.182971 1984.297726,772.885323 1981.780378,772.902874 1980.018904,773.046277 1976.825873,770.895201 1973.518111,768.008593 1971.167659,765.673968 1970.337378,764.813370 1969.996247,764.517841 1970.058764,764.207966"/>
    <poly id="178252653" type="landuse.grass" color="194,194,130" fill="1" layer="-3.00" shape="1957.799630,779.345819 1957.094747,782.809669 1990.760338,793.110388 1994.295865,782.668795 1994.394323,782.170742 1994.323432,781.669384 1994.090389,781.209305 1993.718088,780.857614 1993.262543,780.637625 1992.747298,780.583130 1985.238263,779.258905 1982.393317,779.114516 1978.811539,779.522390 1974.360821,780.224410 1970.619276,780.551399 1967.527637,780.646636 1964.988917,780.519338 1962.693640,780.319016 1960.401613,779.952101 1957.799630,779.345819"/>
    <poly id="178583112" type="landuse.grass" color="194,194,130" fill="1" layer="-3.00" shape="1973.695511,835.830817 1977.191322,834.865736 1989.775311,796.046574 1988.338222,794.863039 1981.187617,792.534752 1978.625209,794.862417 1972.380653,813.495192 1968.823425,813.059149 1966.246074,823.597219 1967.975421,824.686456 1966.445098,829.523021 1970.441563,830.600933 1969.453177,834.537006 1973.695511,835.830817"/>
    <poly id="25822880" type="landuse.construction" color="194,194,130" fill="1" layer="-3.00" shape="2262.926010,745.717665 2317.032946,761.852793 2332.506139,710.302443 2306.551348,702.561797 2298.681025,728.784357 2270.528591,720.389790 2262.926010,745.717665"/>
    <poly id="25822881" type="amenity.parking" color="184,184,179" fill="1" layer="-1.00" shape="2279.726547,773.967009 2319.439828,786.043134 2323.277401,787.407024 2304.934277,846.289788 2300.087382,844.561739 2254.097421,829.218709 2262.724424,803.066452 2263.757987,800.542341 2270.548459,803.130546 2279.726547,773.967009"/>
    <poly id="25822881#1" type="building.parking" color="255,230,230" fill="1" layer="-1.00" shape="2279.726547,773.967009 2319.439828,786.043134 2323.277401,787.407024 2304.934277,846.289788 2300.087382,844.561739 2254.097421,829.218709 2262.724424,803.066452 2263.757987,800.542341 2270.548459,803.130546 2279.726547,773.967009"/>
    <poly id="301310697" type="building.office" color="255,230,230" fill="1" layer="-1.00" shape="2207.943875,728.532599 2165.727637,715.297203 2181.508530,665.696910 2220.387462,678.400522 2219.510412,681.172131 2222.589330,682.143373 2222.090555,683.722435 2207.943875,728.532599"/>
    <poly id="31728272" type="building.retail" color="255,230,230" fill="1" layer="-1.00" shape="1992.534298,747.258450 2002.734417,715.270224 1966.854338,703.915204 1962.156584,702.390307 1968.786695,681.365167 1971.663965,672.410645 1981.597657,675.582060 2137.929182,725.942497 2139.444443,726.427627 2138.886637,728.138867 2121.184239,781.968171 2119.281618,787.686279 2114.071313,785.973492 2109.790601,784.578848 2072.246269,772.546327 1992.534298,747.258450"/>
    <poly id="32773287" type="amenity.parking" color="184,184,179" fill="1" layer="-1.00" shape="2018.299061,969.361085 2019.123061,966.821740 2065.503278,824.134298 2095.122856,833.812154 2054.958214,958.499441 2052.340399,970.692166 2046.122726,975.959409 2040.058807,975.829931 2018.299061,969.361085"/>
    <poly id="34545732" type="building.yes" color="255,230,230" fill="1" layer="-1.00" shape="2002.435727,821.947855 2002.297997,824.045061 2002.887778,826.067578 2003.838622,827.363845 2005.016518,828.186789 2021.634785,833.988590 2022.470208,834.171552 2023.260715,834.175869 2024.209209,833.938838 2051.900942,819.635641 2052.738708,819.285347 2053.625469,818.491587 2054.357883,817.339276 2057.923202,805.376149 2059.368834,800.749049 2059.656725,798.399233 2059.388702,796.838523 2058.521324,795.399441 2057.341911,794.654231 2056.581229,794.361618 2035.308176,787.313385 2033.578050,787.090738 2032.215454,787.464123 2011.280786,797.799467 2010.510395,798.417735 2009.850087,799.182588 2009.450262,800.241398 2002.435727,821.947855"/>
    <poly id="34551654" type="building.office" color="255,230,230" fill="1" layer="-1.00" shape="2191.891157,884.100043 2117.660984,860.339875 2119.053747,856.356166 2120.024955,856.608456 2121.755470,851.853605 2123.504616,848.210175 2125.415124,845.392077 2123.770863,844.904429 2128.599969,837.632451 2130.447364,831.024423 2127.696750,830.181848 2129.431756,824.371584 2131.357194,817.898407 2132.859287,812.861333 2178.951333,827.538875 2178.359349,829.760530 2177.941235,831.341170 2193.210256,837.239256 2191.918909,842.635974 2194.963111,843.728745 2194.791911,845.058667 2202.852593,847.871617 2191.891157,884.100043"/>
    <poly id="34587440" type="building.office" color="255,230,230" fill="1" layer="-1.00" shape="1992.534298,747.258450 2002.734417,715.270224 1966.854338,703.915204 1964.336585,711.810128 1956.654378,735.903480 1992.534298,747.258450"/>
    <poly id="350369065" type="building.yes" color="255,230,230" fill="1" layer="-1.00" shape="2014.027078,784.809278 2017.513034,783.110728 2020.860600,781.476143 2022.110997,783.544886 2033.578050,787.090738 2032.215454,787.464123 2011.280786,797.799467 2010.510395,798.417735 2015.169607,787.031462 2014.027078,784.809278"/>
    <poly id="366948951" type="landuse.commercial" color="209,209,204" fill="1" layer="-3.00" shape="2117.388673,642.545495 2163.422852,656.943983 2145.770111,709.452045 2095.144725,691.808618 2099.911079,672.880425 2107.981511,674.793486 2117.388673,642.545495"/>
    <poly id="4321312" type="building.retail" color="255,230,230" fill="1" layer="-1.00" shape="1974.202518,1207.199680 1978.306407,1194.491508 1981.825598,1197.693350 1986.171926,1191.578469 1987.089143,1188.807618 1986.793835,1182.857710 1985.164402,1175.826268 1983.561264,1174.061740 1985.057591,1169.724490 1984.698486,1168.284222 1994.682675,1161.801604 2026.256404,1063.433883 2004.304830,1056.061373 2005.627555,1050.287478 2007.262351,1046.297361 2013.918127,1048.338268 2017.014934,1048.798686 2020.261487,1049.439797 2022.776694,1050.766601 2025.583198,1051.221357 2028.392217,1050.720656 2030.879461,1049.347052 2032.791913,1047.251155 2033.915576,1044.650997 2034.124288,1041.810770 2033.403263,1039.074610 2031.827936,1036.710646 2042.248213,1006.660008 2042.579793,1005.377657 2051.672655,981.756352 2044.647135,979.230439 2045.099460,977.961555 2050.452540,974.832880 2052.810232,972.245705 2057.730273,973.530582 2071.142976,930.705714 2077.690442,909.790161 2110.762113,810.840948 2111.129223,809.392635 2111.013132,807.901554 2110.704444,807.184450 2110.426929,806.523507 2109.440375,805.404296 2108.140222,804.645609 2106.669893,804.339132 2088.864223,798.613931 2086.987994,804.221457 2082.766992,802.661337 2069.029089,798.493317 2067.670421,803.210997 2063.506990,802.007551 2059.368834,800.749049 2057.923202,805.376149 2054.357883,817.339276 2053.625469,818.491587 2052.738708,819.285347 2051.900942,819.635641 2024.209209,833.938838 2023.260715,834.175869 2022.470208,834.171552 2021.634785,833.988590 2005.016518,828.186789 2003.838622,827.363845 2002.887778,826.067578 2002.297997,824.045061 1982.483673,887.366323 1985.470832,888.902307 1987.592095,890.576946 1989.558406,892.337446 1991.383818,895.117368 1992.584996,897.640679 1992.903672,899.913448 1993.171238,903.151838 1992.591857,906.384813 1991.258229,910.236373 1990.023091,911.934408 1988.403215,913.091630 1986.647813,914.579525 1984.598591,915.828366 1981.982672,916.766166 1978.923615,917.262010 1976.165700,917.208203 1972.746530,917.141497 1938.672351,1019.227146 1970.064364,1028.572402 1967.689643,1036.170131 1956.554671,1071.862197 1953.661385,1080.405320 1952.488435,1084.293352 1947.481556,1100.283758 1937.170141,1097.071668 1913.174436,1089.037394 1910.546186,1097.230165 1907.737912,1096.453216 1895.969347,1130.321995 1893.202161,1137.367677 1900.689466,1140.613515 1904.685641,1147.902185 1902.935334,1151.201218 1893.789819,1155.633761 1885.700473,1182.852417 1905.045379,1188.196042 1905.549114,1188.839167 1906.275552,1189.231091 1906.973849,1189.411367 1907.832122,1189.661426 1928.068701,1196.022457 1929.383356,1196.448078 1930.325731,1196.522012 1935.687012,1198.337608 1970.815766,1209.200164 1971.685132,1209.294900 1972.535940,1209.100400 1973.286688,1208.659515 1973.864150,1208.004149 1974.202518,1207.199680"/>
    <poly id="4321312#1" type="shop.mall" color="237,199,255" fill="1" layer="-1.00" shape="1974.202518,1207.199680 1978.306407,1194.491508 1981.825598,1197.693350 1986.171926,1191.578469 1987.089143,1188.807618 1986.793835,1182.857710 1985.164402,1175.826268 1983.561264,1174.061740 1985.057591,1169.724490 1984.698486,1168.284222 1994.682675,1161.801604 2026.256404,1063.433883 2004.304830,1056.061373 2005.627555,1050.287478 2007.262351,1046.297361 2013.918127,1048.338268 2017.014934,1048.798686 2020.261487,1049.439797 2022.776694,1050.766601 2025.583198,1051.221357 2028.392217,1050.720656 2030.879461,1049.347052 2032.791913,1047.251155 2033.915576,1044.650997 2034.124288,1041.810770 2033.403263,1039.074610 2031.827936,1036.710646 2042.248213,1006.660008 2042.579793,1005.377657 2051.672655,981.756352 2044.647135,979.230439 2045.099460,977.961555 2050.452540,974.832880 2052.810232,972.245705 2057.730273,973.530582 2071.142976,930.705714 2077.690442,909.790161 2110.762113,810.840948 2111.129223,809.392635 2111.013132,807.901554 2110.704444,807.184450 2110.426929,806.523507 2109.440375,805.404296 2108.140222,804.645609 2106.669893,804.339132 2088.864223,798.613931 2086.987994,804.221457 2082.766992,802.661337 2069.029089,798.493317 2067.670421,803.210997 2063.506990,802.007551 2059.368834,800.749049 2057.923202,805.376149 2054.357883,817.339276 2053.625469,818.491587 2052.738708,819.285347 2051.900942,819.635641 2024.209209,833.938838 2023.260715,834.175869 2022.470208,834.171552 2021.634785,833.988590 2005.016518,828.186789 2003.838622,827.363845 2002.887778,826.067578 2002.297997,824.045061 1982.483673,887.366323 1985.470832,888.902307 1987.592095,890.576946 1989.558406,892.337446 1991.383818,895.117368 1992.584996,897.640679 1992.903672,899.913448 1993.171238,903.151838 1992.591857,906.384813 1991.258229,910.236373 1990.023091,911.934408 1988.403215,913.091630 1986.647813,914.579525 1984.598591,915.828366 1981.982672,916.766166 1978.923615,917.262010 1976.165700,917.208203 1972.746530,917.141497 1938.672351,1019.227146 1970.064364,1028.572402 1967.689643,1036.170131 1956.554671,1071.862197 1953.661385,1080.405320 1952.488435,1084.293352 1947.481556,1100.283758 1937.170141,1097.071668 1913.174436,1089.037394 1910.546186,1097.230165 1907.737912,1096.453216 1895.969347,1130.321995 1893.202161,1137.367677 1900.689466,1140.613515 1904.685641,1147.902185 1902.935334,1151.201218 1893.789819,1155.633761 1885.700473,1182.852417 1905.045379,1188.196042 1905.549114,1188.839167 1906.275552,1189.231091 1906.973849,1189.411367 1907.832122,1189.661426 1928.068701,1196.022457 1929.383356,1196.448078 1930.325731,1196.522012 1935.687012,1198.337608 1970.815766,1209.200164 1971.685132,1209.294900 1972.535940,1209.100400 1973.286688,1208.659515 1973.864150,1208.004149 1974.202518,1207.199680"/>
    <poly id="43812168" type="amenity.hospital" color="237,199,199" fill="1" layer="-1.00" shape="2211.538578,897.527815 2177.054573,1007.181794 2190.492747,1011.388642 2209.110922,1017.196686 2250.420001,1030.103612 2252.785247,1022.594670 2250.443817,1021.871147 2254.821981,1007.957432 2242.594548,1004.129661 2246.224888,992.567872 2251.268262,994.144180 2250.726790,995.844621 2255.256888,997.266459 2255.782015,995.576810 2260.424356,997.034178 2262.695490,989.801163 2258.173236,988.390584 2258.853071,986.215095 2249.640296,983.335102 2252.297971,974.898590 2267.067196,979.520485 2270.482524,968.643358 2266.337094,967.351248 2267.016934,965.175759 2271.451150,966.551291 2272.327974,963.790795 2265.127735,961.538996 2269.411829,947.901214 2275.553708,949.821225 2283.407254,924.853809 2284.930741,925.328024 2286.883568,919.110964 2282.008404,917.593474 2283.669025,912.292876 2287.461621,913.478100 2300.657145,871.527119 2289.487867,868.031063 2290.666503,864.276520 2290.941715,863.404168 2253.023256,851.563274 2228.415226,843.871461 2211.538578,897.527815"/>
    <poly id="43812168#1" type="building.yes" color="255,230,230" fill="1" layer="-1.00" shape="2211.538578,897.527815 2177.054573,1007.181794 2190.492747,1011.388642 2209.110922,1017.196686 2250.420001,1030.103612 2252.785247,1022.594670 2250.443817,1021.871147 2254.821981,1007.957432 2242.594548,1004.129661 2246.224888,992.567872 2251.268262,994.144180 2250.726790,995.844621 2255.256888,997.266459 2255.782015,995.576810 2260.424356,997.034178 2262.695490,989.801163 2258.173236,988.390584 2258.853071,986.215095 2249.640296,983.335102 2252.297971,974.898590 2267.067196,979.520485 2270.482524,968.643358 2266.337094,967.351248 2267.016934,965.175759 2271.451150,966.551291 2272.327974,963.790795 2265.127735,961.538996 2269.411829,947.901214 2275.553708,949.821225 2283.407254,924.853809 2284.930741,925.328024 2286.883568,919.110964 2282.008404,917.593474 2283.669025,912.292876 2287.461621,913.478100 2300.657145,871.527119 2289.487867,868.031063 2290.666503,864.276520 2290.941715,863.404168 2253.023256,851.563274 2228.415226,843.871461 2211.538578,897.527815"/>
    <poly id="61698598" type="building.office" color="255,230,230" fill="1" layer="-1.00" shape="2151.978596,753.815553 2152.212603,752.986833 2158.121481,754.868844 2157.125056,757.971444 2203.458066,772.720511 2204.042249,770.898685 2212.957612,773.739457 2211.084779,779.580340 2226.879092,784.611030 2226.471168,785.669671 2221.769356,800.454811 2203.697424,794.735207 2201.858163,800.510085 2199.778564,807.024675 2196.675726,806.041862 2195.609783,809.398642 2192.603065,808.451041 2191.666336,811.388145 2159.411043,801.180615 2150.719759,798.433175 2151.691116,795.374527 2148.588266,794.391737 2149.593832,791.233761 2146.538931,790.274130 2148.292297,784.764214 2150.544418,777.675231 2144.940048,775.899170 2151.978596,753.815553"/>
    <poly id="62057466" type="building.yes" color="255,230,230" fill="1" layer="-1.00" shape="2235.323278,697.647070 2251.820704,703.035982 2250.970225,705.685891 2240.920563,737.343411 2224.106786,732.459425 2234.584371,699.954734 2235.323278,697.647070"/>
    <poly id="62057467" type="building.yes" color="255,230,230" fill="1" layer="-1.00" shape="2159.504974,665.467013 2146.503810,705.344362 2141.958568,707.577683 2095.913224,691.701408 2100.284033,673.198803 2110.531884,675.565476 2111.600798,671.642104 2123.224737,675.424488 2128.825707,660.856839 2125.606418,660.049557 2127.268305,655.093376 2159.504974,665.467013"/>
    <poly id="62058586" type="building.yes" color="255,230,230" fill="1" layer="-1.00" shape="2273.059391,780.336322 2271.008841,779.585151 2265.652785,796.468479 2263.994998,795.847206 2262.806349,799.701553 2245.733325,794.056917 2255.322995,764.468086 2276.255671,771.177052 2273.059391,780.336322"/>
    <poly id="62058587" type="building.yes" color="255,230,230" fill="1" layer="-1.00" shape="2254.097421,829.218709 2262.724424,803.066452 2244.600423,797.123507 2235.965421,823.275628 2254.097421,829.218709"/>
    <poi id="1114080489" type="shop.mobile_phone" color="237,199,255" layer="4.00" x="1968.21" y="1102.53"/>
    <poi id="1114080502" type="shop.mobile_phone" color="237,199,255" layer="4.00" x="1965.52" y="1113.39"/>
    <poi id="1114082031" type="shop.mobile_phone" color="237,199,255" layer="4.00" x="1994.50" y="994.78"/>
    <poi id="1114083699" type="shop.mobile_phone" color="237,199,255" layer="4.00" x="1999.13" y="980.96"/>
    <poi id="1114086434" type="amenity.atm" color="237,199,199" layer="4.00" x="1983.89" y="1028.54"/>
    <poi id="1114094047" type="shop.clothes" color="237,199,255" layer="4.00" x="2018.02" y="897.46"/>
    <poi id="1114101522" type="amenity.fast_food" color="237,199,199" layer="4.00" x="2037.89" y="884.25"/>
    <poi id="1114101540" type="amenity.fast_food" color="237,199,199" layer="4.00" x="2027.51" y="881.06"/>
    <poi id="1114103204" type="shop.clothes" color="237,199,255" layer="4.00" x="2046.01" y="858.96"/>
    <poi id="1114103207" type="amenity.fast_food" color="237,199,199" layer="4.00" x="2041.64" y="872.71"/>
    <poi id="1114103208" type="shop.electronics" color="237,199,255" layer="4.00" x="2048.38" y="852.98"/>
    <poi id="1114103209" type="shop.gift" color="237,199,255" layer="4.00" x="2039.67" y="878.60"/>
    <poi id="1114104458" type="shop.health_food" color="237,199,255" layer="4.00" x="2051.48" y="843.88"/>
    <poi id="1141451412" type="amenity.doctors" color="237,199,199" layer="4.00" x="2159.65" y="735.66"/>
    <poi id="1141452841" type="amenity.cafe" color="237,199,199" layer="4.00" x="2140.05" y="817.76"/>
    <poi id="1157113240" type="shop.clothes" color="237,199,255" layer="4.00" x="2031.25" y="834.47"/>
    <poi id="1157113328" type="shop.clothes" color="237,199,255" layer="4.00" x="2026.44" y="849.68"/>
    <poi id="1157113330" type="shop.clothes" color="237,199,255" layer="4.00" x="2016.95" y="876.70"/>
    <poi id="1288927351" type="amenity.fast_food" color="237,199,199" layer="4.00" x="2154.21" y="823.83"/>
    <poi id="1291927344" type="tourism.information" color="207,245,201" layer="3.00" x="1996.40" y="772.24"/>
    <poi id="1291928825" type="tourism.information" color="207,245,201" layer="3.00" x="1984.50" y="785.04"/>
    <poi id="1340524458" type="shop.clothes" color="237,199,255" layer="4.00" x="2067.07" y="816.00"/>
    <poi id="1340525180" type="shop.clothes" color="237,199,255" layer="4.00" x="2065.54" y="820.19"/>
    <poi id="1340526395" type="shop.clothes" color="237,199,255" layer="4.00" x="2062.60" y="822.02"/>
    <poi id="1340527307" type="shop.clothes" color="237,199,255" layer="4.00" x="2060.81" y="822.99"/>
    <poi id="1340528055" type="shop.clothes" color="237,199,255" layer="4.00" x="2058.50" y="833.72"/>
    <poi id="1340529609" type="shop.clothes" color="237,199,255" layer="4.00" x="2039.88" y="894.80"/>
    <poi id="1340530970" type="shop.shoes" color="237,199,255" layer="4.00" x="2062.13" y="846.12"/>
    <poi id="1340532585" type="shop.clothes" color="237,199,255" layer="4.00" x="2058.52" y="857.39"/>
    <poi id="1340533773" type="shop.clothes" color="237,199,255" layer="4.00" x="2055.02" y="867.54"/>
    <poi id="1357787149" type="amenity.restaurant" color="237,199,199" layer="4.00" x="2227.19" y="731.39"/>
    <poi id="1357787150" type="shop.clothes" color="237,199,255" layer="4.00" x="2244.93" y="718.89"/>
    <poi id="1357787173" type="amenity.bicycle_parking" color="237,199,199" layer="4.00" x="2254.15" y="713.26"/>
    <poi id="1357787180" type="amenity.bicycle_parking" color="237,199,199" layer="4.00" x="2246.28" y="738.04"/>
    <poi id="1409278105" type="shop.mobile_phone" color="237,199,255" layer="4.00" x="2054.72" y="875.55"/>
    <poi id="1409278106" type="shop.clothes" color="237,199,255" layer="4.00" x="2060.52" y="860.28"/>
    <poi id="1409278107" type="shop.shoes" color="237,199,255" layer="4.00" x="2064.07" y="842.65"/>
    <poi id="1409278109" type="shop.mobile_phone" color="237,199,255" layer="4.00" x="2065.65" y="837.31"/>
    <poi id="1409278110" type="shop.mobile_phone" color="237,199,255" layer="4.00" x="2062.53" y="854.76"/>
    <poi id="1413742035" type="shop.clothes" color="237,199,255" layer="4.00" x="2041.99" y="840.29"/>
    <poi id="1413743105" type="shop.clothes" color="237,199,255" layer="4.00" x="2039.77" y="850.80"/>
    <poi id="1413743953" type="shop.cosmetics" color="237,199,255" layer="4.00" x="2034.66" y="868.70"/>
    <poi id="1413745426" type="shop.clothes" color="237,199,255" layer="4.00" x="2043.18" y="845.86"/>
    <poi id="1413749356" type="shop.clothes" color="237,199,255" layer="4.00" x="2038.30" y="856.10"/>
    <poi id="1413751501" type="shop.clothes" color="237,199,255" layer="4.00" x="2046.07" y="833.81"/>
    <poi id="1413753109" type="shop.clothes" color="237,199,255" layer="4.00" x="2047.70" y="829.18"/>
    <poi id="1413754137" type="shop.clothes" color="237,199,255" layer="4.00" x="2047.38" y="824.61"/>
    <poi id="1413754977" type="shop.clothes" color="237,199,255" layer="4.00" x="2049.61" y="817.88"/>
    <poi id="1413755892" type="shop.clothes" color="237,199,255" layer="4.00" x="2052.28" y="809.49"/>
    <poi id="1413759226" type="shop.optician" color="237,199,255" layer="4.00" x="2055.15" y="802.54"/>
    <poi id="1413760612" type="shop.clothes" color="237,199,255" layer="4.00" x="2057.58" y="793.93"/>
    <poi id="1413767503" type="shop.clothes" color="237,199,255" layer="4.00" x="2034.34" y="872.80"/>
    <poi id="1413768996" type="shop.clothes" color="237,199,255" layer="4.00" x="2022.56" y="898.01"/>
    <poi id="1562058306" type="amenity.bank" color="237,199,199" layer="4.00" x="2179.38" y="708.20"/>
    <poi id="1907371546" type="amenity.pharmacy" color="237,199,199" layer="4.00" x="2079.36" y="822.90"/>
    <poi id="2020467680" type="shop.clothes" color="237,199,255" layer="4.00" x="2080.07" y="769.13"/>
    <poi id="2020467681" type="shop.clothes" color="237,199,255" layer="4.00" x="2090.81" y="771.71"/>
    <poi id="2020467682" type="shop.clothes" color="237,199,255" layer="4.00" x="1998.59" y="736.87"/>
    <poi id="2374996786" type="amenity.cafe" color="237,199,199" layer="4.00" x="2196.17" y="840.00"/>
    <poi id="2478475880" type="shop.cosmetics" color="237,199,255" layer="4.00" x="2076.02" y="832.36"/>
    <poi id="2498982142" type="amenity.toilets" color="237,199,199" layer="4.00" x="2066.52" y="833.32"/>
    <poi id="273325243" type="amenity.pub" color="237,199,199" layer="4.00" x="2012.10" y="810.64"/>
    <poi id="273325244" type="amenity.post_box" color="237,199,199" layer="4.00" x="2144.94" y="703.64"/>
    <poi id="273325274" type="amenity.post_box" color="237,199,199" layer="4.00" x="1980.60" y="881.15"/>
    <poi id="281662928" type="tourism.hotel" color="207,245,201" layer="3.00" x="2237.83" y="721.37"/>
    <poi id="281663042" type="shop.convenience" color="237,199,255" layer="4.00" x="2256.47" y="765.18"/>
    <poi id="281663297" type="amenity.pub" color="237,199,199" layer="4.00" x="2286.75" y="709.52"/>
    <poi id="281669489" type="amenity.restaurant" color="237,199,199" layer="4.00" x="2142.57" y="700.18"/>
    <poi id="281669588" type="amenity.pharmacy" color="237,199,199" layer="4.00" x="2157.52" y="748.78"/>
    <poi id="281669607" type="amenity.bank" color="237,199,199" layer="4.00" x="2138.91" y="829.75"/>
    <poi id="293534178" type="amenity.theatre" color="237,199,199" layer="4.00" x="2115.73" y="879.68"/>
    <poi id="3053872761" type="amenity.parking_entrance" color="237,199,199" layer="4.00" x="2222.09" y="683.72"/>
    <poi id="3561214175" type="natural.tree" color="140,196,107" layer="1.00" x="2031.80" y="781.26"/>
    <poi id="3561214177" type="amenity.bicycle_parking" color="237,199,199" layer="4.00" x="2035.43" y="781.88"/>
    <poi id="3561214184" type="natural.tree" color="140,196,107" layer="1.00" x="2045.21" y="785.28"/>
    <poi id="3561229994" type="natural.tree" color="140,196,107" layer="1.00" x="2053.92" y="788.28"/>
    <poi id="3561229999" type="amenity.bicycle_parking" color="237,199,199" layer="4.00" x="2074.27" y="794.93"/>
    <poi id="3561230000" type="natural.tree" color="140,196,107" layer="1.00" x="2076.63" y="795.82"/>
    <poi id="3586994485" type="amenity.cafe" color="237,199,199" layer="4.00" x="2097.15" y="778.50"/>
    <poi id="3708554673" type="amenity.bench" color="237,199,199" layer="4.00" x="2209.89" y="804.80"/>
    <poi id="3708554676" type="amenity.bench" color="237,199,199" layer="4.00" x="2203.86" y="803.17"/>
    <poi id="3708554678" type="amenity.bench" color="237,199,199" layer="4.00" x="2206.88" y="804.00"/>
    <poi id="388479986" type="shop.electronics" color="237,199,255" layer="4.00" x="2044.02" y="832.83"/>
    <poi id="388479996" type="shop.clothes" color="237,199,255" layer="4.00" x="2081.67" y="841.70"/>
    <poi id="388480005" type="shop.electronics" color="237,199,255" layer="4.00" x="2046.46" y="823.23"/>
    <poi id="388480007" type="amenity.fast_food" color="237,199,199" layer="4.00" x="2052.56" y="839.57"/>
    <poi id="388480009" type="amenity.fast_food" color="237,199,199" layer="4.00" x="2030.11" y="804.62"/>
    <poi id="388480798" type="shop.clothes" color="237,199,255" layer="4.00" x="2068.11" y="839.50"/>
    <poi id="388481317" type="shop.gift" color="237,199,255" layer="4.00" x="2058.44" y="866.95"/>
    <poi id="391176509" type="shop.electronics" color="237,199,255" layer="4.00" x="2048.68" y="820.08"/>
    <poi id="392159478" type="shop.shoes" color="237,199,255" layer="4.00" x="2066.06" y="804.20"/>
    <poi id="400710181" type="amenity.cafe" color="237,199,199" layer="4.00" x="2055.31" y="809.10"/>
    <poi id="400914580" type="amenity.cafe" color="237,199,199" layer="4.00" x="2260.80" y="864.88"/>
    <poi id="400914660" type="leisure.sports_centre" color="207,245,201" layer="3.00" x="2099.70" y="824.90"/>
    <poi id="400916037" type="amenity.fast_food" color="237,199,199" layer="4.00" x="2185.72" y="846.49"/>
    <poi id="400916039" type="shop.convenience" color="237,199,255" layer="4.00" x="2169.64" y="838.89"/>
    <poi id="400917823" type="amenity.cafe" color="237,199,199" layer="4.00" x="2206.18" y="791.36"/>
    <poi id="400920963" type="amenity.atm" color="237,199,199" layer="4.00" x="2068.49" y="795.69"/>
    <poi id="400926974" type="shop.home" color="237,199,255" layer="4.00" x="2110.90" y="889.96"/>
    <poi id="4013503261" type="shop.department_store" color="237,199,255" layer="4.00" x="2010.43" y="712.63"/>
    <poi id="4013503262" type="shop.department_store" color="237,199,255" layer="4.00" x="2106.53" y="743.11"/>
    <poi id="401517939" type="shop.health_food" color="237,199,255" layer="4.00" x="2059.66" y="797.23"/>
    <poi id="401518633" type="shop.clothes" color="237,199,255" layer="4.00" x="2057.77" y="801.47"/>
    <poi id="401518919" type="shop.toys" color="237,199,255" layer="4.00" x="2066.90" y="821.06"/>
    <poi id="401518946" type="shop.clothes" color="237,199,255" layer="4.00" x="2054.45" y="811.95"/>