<?xml version="1.0" encoding="UTF-8"?>

<!-- generated on 06/16/20 11:35:27 by Eclipse SUMO polyconvert Version 1.2.0
<configuration xmlns:xsi="http://www.w3.org/2001/XMLSchema-instance" xsi:noNamespaceSchemaLocation="http://sumo.dlr.de/xsd/polyconvertConfiguration.xsd">

    <input>
        <net-file value="C:\Users\abuba\src\sumo-win64-0.32.0\tools\2020-06-16-11-35-12\osm.net.xml"/>
        <osm-files value="osm_bbox.osm.xml"/>
        <osm.keep-full-type value="true"/>
        <type-file value="C:\Program%20Files%20(x86)\Eclipse\Sumo\data\typemap\osmPolyconvert.typ.xml"/>
    </input>

    <output>
        <output-file value="C:\Users\abuba\src\sumo-win64-0.32.0\tools\2020-06-16-11-35-12\osm.poly.xml"/>
    </output>

    <processing>
        <poi-layer-offset value="5"/>
    </processing>

    <report>
        <verbose value="true"/>
    </report>

</configuration>
-->

<additional xmlns:xsi="http://www.w3.org/2001/XMLSchema-instance" xsi:noNamespaceSchemaLocation="http://sumo.dlr.de/xsd/additional_file.xsd">
    <location netOffset="-353481.14,-5643037.16" convBoundary="-26811.79,-44882.93,6214.48,3191.49" origBoundary="6.554390,50.510516,7.015601,50.949741" projParameter="+proj=utm +zone=32 +ellps=WGS84 +datum=WGS84 +units=m +no_defs"/>

    <poly id="100043241" type="building.yes" color="255,230,230" fill="1" layer="-1.00" shape="2939.227392,2034.993912 2939.206389,2032.713387 2939.188648,2031.311833 2939.183598,2030.622078 2951.545526,2030.446491 2952.084461,2034.927007 2939.227392,2034.993912"/>
    <poly id="100989821" type="building.yes" color="255,230,230" fill="1" layer="-1.00" shape="2172.631309,1822.748461 2169.202561,1822.832836 2169.031149,1818.698211 2168.827218,1813.396113 2173.695272,1813.238267 2173.692980,1809.621920 2177.824598,1809.529100 2177.556742,1812.029102 2176.313055,1823.669637 2172.631309,1822.748461"/>
    <poly id="100989826" type="amenity.parking" color="184,184,179" fill="1" layer="-1.00" shape="2177.241093,1808.521629 2177.920884,1792.790783 2174.280208,1793.092477 2174.438012,1808.855632 2177.241093,1808.521629"/>
    <poly id="100989827" type="building.yes" color="255,230,230" fill="1" layer="-1.00" shape="2169.919556,1865.486514 2168.300283,1866.165881 2168.320300,1862.593422 2166.562703,1862.597869 2166.574846,1860.004842 2167.319233,1859.972980 2175.641069,1859.874716 2175.639601,1860.831715 2175.635568,1865.483088 2169.919556,1865.486514"/>
    <poly id="100989830" type="building.yes" color="255,230,230" fill="1" layer="-1.00" shape="2169.433673,1836.935965 2169.264803,1834.659548 2168.457803,1834.715408 2168.295045,1831.648774 2167.865561,1831.627354 2167.432757,1822.904386 2169.202561,1822.832836 2172.631309,1822.748461 2176.313055,1823.669637 2175.592977,1826.593949 2175.450070,1827.521505 2175.547603,1831.780589 2175.656073,1836.684759 2169.433673,1836.935965"/>
    <poly id="100989831" type="building.yes" color="255,230,230" fill="1" layer="-1.00" shape="2167.319233,1859.972980 2167.347041,1859.204413 2166.699462,1859.177942 2166.614520,1855.118800 2168.652209,1855.073169 2168.747354,1855.459978 2175.643554,1855.167749 2175.637927,1857.237606 2175.641069,1859.874716 2167.319233,1859.972980"/>
    <poly id="100992270" type="building.yes" color="255,230,230" fill="0" layer="-1.00" shape="2167.356143,1887.801627 2164.309710,1887.474771 2163.004436,1887.310836 2163.141697,1884.413884 2166.795006,1884.568051 2166.715625,1886.261630 2167.926472,1886.316922 2168.183232,1880.389983 2169.875737,1880.320585 2175.628930,1880.138083 2175.620402,1882.608608 2175.619828,1885.112293 2175.614707,1887.705124 2169.409109,1887.800080 2167.441377,1887.832635"/>
    <poly id="100992271" type="building.terrace" color="255,230,230" fill="1" layer="-1.00" shape="2166.887148,1875.507765 2166.875980,1871.068236 2175.631827,1870.902245 2175.603903,1872.171549 2175.524793,1875.389576 2169.818605,1875.492876 2166.887148,1875.507765"/>
    <poly id="100992275" type="building.yes" color="255,230,230" fill="1" layer="-1.00" shape="2175.628930,1880.138083 2169.875737,1880.320585 2169.818605,1875.492876 2175.524793,1875.389576 2175.623769,1875.409074 2175.625070,1877.222807 2175.628930,1880.138083"/>
    <poly id="100992277" type="building.terrace" color="255,230,230" fill="1" layer="-1.00" shape="2160.550930,1871.166529 2160.474512,1869.432780 2160.867007,1869.388465 2160.852284,1866.840696 2161.513294,1866.844538 2167.786596,1866.402737 2168.300283,1866.165881 2169.919556,1865.486514 2175.635568,1865.483088 2175.638223,1866.840559 2175.631827,1870.902245 2166.875980,1871.068236 2160.550930,1871.166529"/>
    <poly id="101010765" type="building.yes" color="255,230,230" fill="1" layer="-1.00" shape="2169.885557,1923.583718 2169.986665,1920.398460 2170.130561,1916.477600 2176.938138,1916.287984 2177.107446,1917.318118 2177.363112,1918.924473 2178.033321,1923.045206 2175.855461,1923.105866 2175.832624,1923.295668 2169.885557,1923.583718"/>
    <poly id="101010765#1" type="historic.heritage" color="128,255,128" fill="1" layer="-1.00" shape="2169.885557,1923.583718 2169.986665,1920.398460 2170.130561,1916.477600 2176.938138,1916.287984 2177.107446,1917.318118 2177.363112,1918.924473 2178.033321,1923.045206 2175.855461,1923.105866 2175.832624,1923.295668 2169.885557,1923.583718"/>
    <poly id="101010766" type="building.yes" color="255,230,230" fill="1" layer="-1.00" shape="2168.196011,1916.186536 2168.214527,1915.084405 2168.357101,1910.106477 2175.993566,1910.394506 2176.537955,1913.784334 2176.853329,1915.767357 2168.196011,1916.186536"/>
    <poly id="101010766#1" type="historic.heritage" color="128,255,128" fill="1" layer="-1.00" shape="2168.196011,1916.186536 2168.214527,1915.084405 2168.357101,1910.106477 2175.993566,1910.394506 2176.537955,1913.784334 2176.853329,1915.767357 2168.196011,1916.186536"/>
    <poly id="101010767" type="building.yes" color="255,230,230" fill="1" layer="-1.00" shape="2175.610573,1896.896487 2167.856092,1897.168116 2166.022156,1897.208073 2165.885721,1895.086536 2168.069689,1894.992320 2167.976744,1893.170012 2175.609322,1892.812759 2175.610573,1896.896487"/>
    <poly id="101010768" type="building.yes" color="255,230,230" fill="1" layer="-1.00" shape="2168.049594,1902.348104 2167.959241,1900.114009 2167.856092,1897.168116 2175.610573,1896.896487 2175.604248,1897.931513 2175.596289,1902.694270 2168.049594,1902.348104"/>
    <poly id="101010770" type="building.yes" color="255,230,230" fill="1" layer="-1.00" shape="2167.359448,1907.608342 2167.463229,1905.023890 2167.585300,1902.338782 2168.049594,1902.348104 2175.596289,1902.694270 2175.596123,1905.465002 2175.594002,1907.913093 2168.260554,1907.650007 2167.359448,1907.608342"/>
    <poly id="101010771" type="building.yes" color="255,230,230" fill="1" layer="-1.00" shape="2174.093351,1927.238710 2171.438389,1927.334915 2168.017973,1927.463572 2168.605021,1926.579281 2167.821961,1923.707963 2169.885557,1923.583718 2175.832624,1923.295668 2175.855461,1923.105866 2178.033321,1923.045206 2178.095603,1923.766753 2178.175651,1924.621335 2174.115406,1925.001484 2174.093351,1927.238710"/>
    <poly id="101010773" type="building.yes" color="255,230,230" fill="1" layer="-1.00" shape="2167.428454,1893.174157 2167.327766,1891.073879 2169.469893,1890.991957 2169.409109,1887.800080 2175.614707,1887.705124 2175.616301,1890.286641 2175.609322,1892.812759 2167.976744,1893.170012 2167.428454,1893.174157"/>
    <poly id="101052280" type="building.yes" color="255,230,230" fill="1" layer="-1.00" shape="2926.555563,2177.229854 2925.918879,2168.968749 2931.397026,2168.260580 2937.169607,2167.522005 2938.973722,2173.514166 2936.178451,2173.869803 2936.473620,2175.642000 2935.592168,2175.799952 2926.555563,2177.229854"/>
    <poly id="101052280#1" type="historic.heritage" color="128,255,128" fill="1" layer="-1.00" shape="2926.555563,2177.229854 2925.918879,2168.968749 2931.397026,2168.260580 2937.169607,2167.522005 2938.973722,2173.514166 2936.178451,2173.869803 2936.473620,2175.642000 2935.592168,2175.799952 2926.555563,2177.229854"/>
    <poly id="101052283" type="building.yes" color="255,230,230" fill="1" layer="-1.00" shape="2927.030179,2184.716537 2926.991911,2184.350395 2927.244811,2184.343387 2926.867497,2177.577286 2926.593215,2177.573759 2926.555563,2177.229854 2935.592168,2175.799952 2936.223668,2180.322413 2939.972485,2179.873591 2940.273689,2182.624828 2936.627229,2183.215469 2927.030179,2184.716537"/>
    <poly id="101356738" type="building.yes" color="255,230,230" fill="1" layer="-1.00" shape="2149.252269,1908.012599 2149.210677,1905.510087 2149.131829,1900.660728 2149.087040,1897.791101 2159.953459,1897.421629 2160.062256,1902.336918 2160.152765,1907.352864 2149.252269,1908.012599"/>
    <poly id="101356741" type="building.yes" color="255,230,230" fill="1" layer="-1.00" shape="2149.087040,1897.791101 2148.999731,1892.385607 2148.952155,1889.415910 2148.922432,1887.591841 2159.738666,1886.934455 2159.871819,1893.228866 2159.953459,1897.421629 2149.087040,1897.791101"/>
    <poly id="101356744" type="building.yes" color="255,230,230" fill="1" layer="-1.00" shape="2149.406361,1917.077155 2149.376229,1914.986039 2149.333707,1912.450171 2159.928893,1912.188401 2161.903951,1912.166765 2162.061743,1915.812164 2162.651874,1915.795725 2162.648240,1916.674893 2162.297591,1916.706915 2149.406361,1917.077155"/>
    <poly id="101356744#1" type="historic.heritage" color="128,255,128" fill="1" layer="-1.00" shape="2149.406361,1917.077155 2149.376229,1914.986039 2149.333707,1912.450171 2159.928893,1912.188401 2161.903951,1912.166765 2162.061743,1915.812164 2162.651874,1915.795725 2162.648240,1916.674893 2162.297591,1916.706915 2149.406361,1917.077155"/>
    <poly id="101356748" type="building.yes" color="255,230,230" fill="1" layer="-1.00" shape="2149.333707,1912.450171 2149.313066,1911.204475 2149.295002,1910.303657 2149.252269,1908.012599 2160.152765,1907.352864 2163.242480,1907.467091 2165.122281,1907.559384 2165.080000,1908.817961 2165.035763,1909.753896 2159.831511,1909.954502 2159.928893,1912.188401 2149.333707,1912.450171"/>
    <poly id="101504144" type="building.yes" color="255,230,230" fill="1" layer="-1.00" shape="2148.922432,1887.591841 2148.820057,1881.140789 2148.754628,1877.025466 2159.656443,1875.653541 2160.175395,1875.605703 2160.239153,1880.166169 2160.716881,1880.152862 2160.750399,1883.122949 2159.669725,1883.197562 2159.738666,1886.934455 2148.922432,1887.591841"/>
    <poly id="101504145" type="building.yes" color="255,230,230" fill="1" layer="-1.00" shape="2148.572774,1866.459482 2148.525607,1863.756833 2148.469260,1860.219883 2155.230521,1860.131679 2160.670379,1860.058037 2161.423031,1860.070454 2161.513294,1866.844538 2160.852284,1866.840696 2148.572774,1866.459482"/>
    <poly id="101504146" type="building.yes" color="255,230,230" fill="0" layer="-1.00" shape="2147.237230,1813.975263 2147.171169,1810.594367 2147.099336,1806.501478 2147.060421,1804.599773 2158.400629,1804.573186 2160.671729,1804.576688 2161.368184,1804.590670 2161.434627,1808.995277 2161.493425,1813.377842 2147.287028,1813.996130"/>
    <poly id="101504147" type="building.yes" color="255,230,230" fill="1" layer="-1.00" shape="2148.392991,1855.715402 2148.308120,1852.668853 2148.172662,1847.554013 2148.089861,1844.329368 2147.903295,1837.379927 2158.862410,1837.052386 2159.157832,1855.482291 2148.392991,1855.715402"/>
    <poly id="101504149" type="building.yes" color="255,230,230" fill="1" layer="-1.00" shape="2148.754628,1877.025466 2148.704462,1874.467557 2148.653789,1871.386673 2159.680087,1871.201915 2159.656443,1875.653541 2148.754628,1877.025466"/>
    <poly id="101504150" type="building.yes" color="255,230,230" fill="1" layer="-1.00" shape="2148.653789,1871.386673 2148.607242,1868.706261 2148.572774,1866.459482 2160.852284,1866.840696 2160.867007,1869.388465 2160.474512,1869.432780 2160.550930,1871.166529 2159.680087,1871.201915 2148.653789,1871.386673"/>
    <poly id="101504154" type="building.yes" color="255,230,230" fill="1" layer="-1.00" shape="2159.268518,1823.109545 2147.536260,1823.447494 2147.453868,1820.489896 2147.360226,1816.876093 2147.287028,1813.996130 2158.867435,1813.506627 2159.268518,1823.109545"/>
    <poly id="101504155" type="building.yes" color="255,230,230" fill="1" layer="-1.00" shape="2148.469260,1860.219883 2148.422094,1857.517233 2148.392991,1855.715402 2159.157832,1855.482291 2162.460721,1855.423669 2162.496060,1855.177882 2166.614520,1855.118800 2166.699462,1859.177942 2167.347041,1859.204413 2167.319233,1859.972980 2166.574846,1860.004842 2161.423031,1860.070454 2160.670379,1860.058037 2160.645730,1857.911132 2155.205560,1857.973654 2155.230521,1860.131679 2148.469260,1860.219883"/>
    <poly id="10152395" type="building.yes" color="255,230,230" fill="1" layer="-1.00" shape="3090.819812,2196.515331 3090.538996,2157.922380 3090.298794,2136.798222 3093.425245,2136.722814 3138.441300,2136.478507 3140.866477,2136.467041 3147.586415,2136.425767 3147.914119,2157.925825 3147.994550,2166.168951 3148.202404,2196.296006 3090.819812,2196.515331"/>
    <poly id="10152395#1" type="tourism.museum" color="207,245,201" fill="1" layer="-2.00" shape="3090.819812,2196.515331 3090.538996,2157.922380 3090.298794,2136.798222 3093.425245,2136.722814 3138.441300,2136.478507 3140.866477,2136.467041 3147.586415,2136.425767 3147.914119,2157.925825 3147.994550,2166.168951 3148.202404,2196.296006 3090.819812,2196.515331"/>
    <poly id="10154135" type="building.public" color="255,230,230" fill="1" layer="-1.00" shape="3230.997294,2197.010265 3231.039909,2199.568371 3231.863674,2199.612356 3231.907314,2207.800858 3222.030815,2207.840299 3222.061538,2210.476625 3222.912478,2210.486475 3222.975978,2218.629919 3214.034736,2218.676895 3213.988354,2220.558695 3195.904305,2220.736161 3195.915863,2218.866450 3186.948980,2219.003201 3186.921119,2215.454355 3174.326597,2215.591326 3174.379990,2213.709330 3172.398650,2213.753014 3170.789940,2213.797517 3170.733353,2210.227210 3161.742919,2210.275636 3161.718417,2208.373541 3158.170206,2208.449451 3158.008871,2200.330965 3159.815207,2200.314373 3159.807637,2195.974924 3155.780797,2196.030695 3155.767626,2194.284069 3154.621634,2194.282393 3154.616466,2191.300412 3155.726410,2191.269703 3155.716779,2188.888722 3154.612629,2188.874760 3154.586386,2185.893363 3155.676487,2185.907712 3155.658908,2183.493568 3154.569114,2183.490337 3154.556921,2180.508551 3155.681534,2180.499691 3155.656930,2178.085742 3154.510935,2178.084066 3154.498742,2175.102279 3155.637405,2175.093031 3155.560394,2173.325916 3156.917448,2173.332881 3156.801182,2166.081080 3170.351534,2165.928757 3182.109895,2165.803784 3191.921407,2165.699304 3191.893293,2162.395266 3194.957425,2162.355024 3194.892065,2160.754497 3194.862590,2159.943018 3207.141736,2159.837080 3207.139748,2159.002586 3207.056661,2145.830134 3228.482730,2145.482413 3241.539010,2145.766779 3281.736689,2145.690322 3281.850758,2148.290961 3301.644895,2148.166689 3301.621791,2150.637591 3316.052755,2150.550331 3316.107043,2161.164286 3319.726149,2161.108781 3319.758627,2169.152930 3303.616690,2169.398743 3303.620192,2172.069201 3299.923205,2172.104616 3299.930488,2173.639984 3291.362113,2173.698772 3282.006632,2173.768205 3282.016029,2176.905848 3260.449859,2177.012426 3260.448375,2178.993130 3260.575095,2180.525196 3257.012509,2180.590308 3257.027138,2182.136601 3241.126191,2182.197910 3241.162206,2188.839924 3242.497872,2188.836375 3242.627593,2196.833331 3237.307856,2196.913660 3230.997294,2197.010265"/>
    <poly id="107709262" type="amenity.place_of_worship" color="237,199,199" fill="1" layer="-1.00" shape="2106.814483,2476.382460 2106.071945,2471.685122 2105.354199,2467.120623 2094.685769,2468.497343 2094.888555,2469.971640 2090.031655,2470.507610 2088.593780,2471.382248 2087.697835,2472.531094 2087.174919,2473.947728 2087.645572,2475.447940 2088.753604,2476.863621 2090.055843,2477.428203 2092.987788,2477.190692 2095.786163,2476.700975 2096.067975,2477.983903 2106.814483,2476.382460"/>
    <poly id="107709262#1" type="building.chapel" color="255,230,230" fill="1" layer="-1.00" shape="2106.814483,2476.382460 2106.071945,2471.685122 2105.354199,2467.120623 2094.685769,2468.497343 2094.888555,2469.971640 2090.031655,2470.507610 2088.593780,2471.382248 2087.697835,2472.531094 2087.174919,2473.947728 2087.645572,2475.447940 2088.753604,2476.863621 2090.055843,2477.428203 2092.987788,2477.190692 2095.786163,2476.700975 2096.067975,2477.983903 2106.814483,2476.382460"/>
    <poly id="107709262#2" type="historic.heritage" color="128,255,128" fill="1" layer="-1.00" shape="2106.814483,2476.382460 2106.071945,2471.685122 2105.354199,2467.120623 2094.685769,2468.497343 2094.888555,2469.971640 2090.031655,2470.507610 2088.593780,2471.382248 2087.697835,2472.531094 2087.174919,2473.947728 2087.645572,2475.447940 2088.753604,2476.863621 2090.055843,2477.428203 2092.987788,2477.190692 2095.786163,2476.700975 2096.067975,2477.983903 2106.814483,2476.382460"/>
    <poly id="109074548" type="building.yes" color="255,230,230" fill="1" layer="-1.00" shape="2313.450206,2163.699878 2311.989913,2152.657616 2330.588178,2150.226163 2330.870451,2153.801334 2331.451304,2161.285045 2324.650423,2162.208696 2320.791082,2162.727804 2313.450206,2163.699878"/>
    <poly id="109074551" type="building.yes" color="255,230,230" fill="1" layer="-1.00" shape="2280.936209,2170.335427 2279.134186,2157.121709 2304.718656,2153.605510 2306.493442,2166.853373 2299.776253,2167.752473 2299.582093,2166.333568 2297.103594,2164.177067 2289.348246,2165.160711 2287.496427,2167.838324 2287.708664,2169.401382 2280.936209,2170.335427"/>
    <poly id="109074554" type="building.yes" color="255,230,230" fill="1" layer="-1.00" shape="2325.153371,2167.903061 2324.650423,2162.208696 2331.451304,2161.285045 2331.939575,2166.957565 2327.709768,2167.553741 2325.153371,2167.903061"/>
    <poly id="110927114" type="building.yes" color="255,230,230" fill="1" layer="-1.00" shape="2291.902630,1885.602458 2291.105767,1883.243370 2288.655476,1875.789436 2298.190525,1873.053790 2298.654575,1878.359776 2299.364142,1878.340029 2299.575930,1882.918627 2299.550782,1886.057255 2291.902630,1885.602458"/>
    <poly id="110927114#1" type="shop.optician" color="237,199,255" fill="1" layer="-1.00" shape="2291.902630,1885.602458 2291.105767,1883.243370 2288.655476,1875.789436 2298.190525,1873.053790 2298.654575,1878.359776 2299.364142,1878.340029 2299.575930,1882.918627 2299.550782,1886.057255 2291.902630,1885.602458"/>
    <poly id="110927115" type="building.public" color="255,230,230" fill="1" layer="-1.00" shape="2188.182807,1938.841643 2187.924200,1935.110033 2186.932835,1920.972440 2185.903979,1906.246138 2199.593444,1901.970293 2201.553455,1908.224955 2202.372767,1910.883846 2196.406118,1912.741376 2197.196509,1926.984713 2215.654119,1924.523419 2217.071278,1934.765690 2212.949572,1934.958354 2212.571133,1935.002274 2201.211432,1936.843068 2199.055990,1937.203535 2188.182807,1938.841643"/>
    <poly id="110927117" type="building.yes" color="255,230,230" fill="1" layer="-1.00" shape="2189.472218,1957.622196 2189.279918,1954.756678 2188.182807,1938.841643 2199.029437,1937.259911 2201.211432,1936.843068 2201.676373,1943.439806 2202.193256,1950.891909 2202.580318,1956.711896 2189.472218,1957.622196"/>
    <poly id="110927119" type="building.yes" color="255,230,230" fill="1" layer="-1.00" shape="2238.302633,1908.192027 2235.429230,1909.028691 2234.800600,1904.884540 2237.103806,1904.275172 2236.799883,1903.460205 2237.014575,1903.342954 2233.912785,1893.703954 2233.649466,1892.832219 2246.085262,1888.980864 2249.827092,1900.649496 2250.297873,1912.509339 2239.124109,1913.454677 2238.302633,1908.192027"/>
    <poly id="110927127" type="building.yes" color="255,230,230" fill="1" layer="-1.00" shape="2214.575890,1915.595874 2214.244910,1914.314310 2212.284702,1908.304452 2214.082387,1907.720278 2214.667874,1907.537064 2212.124720,1899.529376 2214.125216,1898.906173 2214.449385,1899.943123 2233.912785,1893.703954 2237.014575,1903.342954 2236.799883,1903.460205 2237.103806,1904.275172 2234.800600,1904.884540 2235.429230,1909.028691 2216.492695,1914.997256 2214.575890,1915.595874"/>
    <poly id="110927129" type="building.yes" color="255,230,230" fill="1" layer="-1.00" shape="2201.553455,1908.224955 2199.593444,1901.970293 2204.527781,1900.408572 2205.872127,1907.025330 2201.553455,1908.224955"/>
    <poly id="110927130" type="amenity.parking" color="184,184,179" fill="1" layer="-1.00" shape="2251.098567,1931.926637 2250.896452,1927.191986 2250.297873,1912.509339 2249.987918,1904.406084 2282.256796,1894.461275 2281.344863,1891.504511 2287.304538,1889.647275 2285.820739,1884.837021 2291.105767,1883.243370 2291.902630,1885.602458 2292.679344,1887.995489 2292.867369,1892.730531 2293.751985,1898.748094 2295.167490,1905.652203 2295.509063,1907.567738 2296.855113,1915.007895 2298.873036,1926.379584 2266.479602,1929.317497 2266.439094,1932.156114 2251.098567,1931.926637"/>
    <poly id="110927130#1" type="building.yes" color="255,230,230" fill="1" layer="-1.00" shape="2251.098567,1931.926637 2250.896452,1927.191986 2250.297873,1912.509339 2249.987918,1904.406084 2282.256796,1894.461275 2281.344863,1891.504511 2287.304538,1889.647275 2285.820739,1884.837021 2291.105767,1883.243370 2291.902630,1885.602458 2292.679344,1887.995489 2292.867369,1892.730531 2293.751985,1898.748094 2295.167490,1905.652203 2295.509063,1907.567738 2296.855113,1915.007895 2298.873036,1926.379584 2266.479602,1929.317497 2266.439094,1932.156114 2251.098567,1931.926637"/>
    <poly id="110927133" type="building.yes" color="255,230,230" fill="1" layer="-1.00" shape="2298.654575,1878.359776 2298.190525,1873.053790 2301.013815,1872.941838 2315.073316,1872.862167 2315.258935,1877.764188 2299.364142,1878.340029 2298.654575,1878.359776"/>
    <poly id="110927135" type="amenity.parking" color="184,184,179" fill="1" layer="-1.00" shape="2222.372977,1933.015716 2219.823338,1918.209356 2225.053421,1917.674269 2235.900439,1915.347070 2238.008467,1927.172456 2238.936896,1931.731102 2234.245636,1931.416618 2222.372977,1933.015716"/>
    <poly id="111265514" type="building.yes" color="255,230,230" fill="1" layer="-1.00" shape="2493.398101,2261.456740 2493.949180,2257.001592 2494.615727,2251.641917 2494.842046,2250.678670 2560.968400,2258.744509 2559.060714,2272.573215 2558.569784,2276.158746 2492.740009,2268.385144 2493.398101,2261.456740"/>
    <poly id="111265514#1" type="historic.heritage" color="128,255,128" fill="1" layer="-1.00" shape="2493.398101,2261.456740 2493.949180,2257.001592 2494.615727,2251.641917 2494.842046,2250.678670 2560.968400,2258.744509 2559.060714,2272.573215 2558.569784,2276.158746 2492.740009,2268.385144 2493.398101,2261.456740"/>
    <poly id="111265514#2" type="tourism.museum" color="207,245,201" fill="1" layer="-2.00" shape="2493.398101,2261.456740 2493.949180,2257.001592 2494.615727,2251.641917 2494.842046,2250.678670 2560.968400,2258.744509 2559.060714,2272.573215 2558.569784,2276.158746 2492.740009,2268.385144 2493.398101,2261.456740"/>
    <poly id="111265518" type="building.yes" color="255,230,230" fill="1" layer="-1.00" shape="2458.792921,2263.409046 2458.650823,2264.114023 2452.419410,2263.263550 2454.468576,2247.706112 2476.889629,2250.788224 2477.383536,2250.852386 2476.404482,2257.867607 2475.250539,2266.178467 2469.272645,2265.343182 2469.342725,2264.829374 2458.792921,2263.409046"/>
    <poly id="111265518#1" type="historic.heritage" color="128,255,128" fill="1" layer="-1.00" shape="2458.792921,2263.409046 2458.650823,2264.114023 2452.419410,2263.263550 2454.468576,2247.706112 2476.889629,2250.788224 2477.383536,2250.852386 2476.404482,2257.867607 2475.250539,2266.178467 2469.272645,2265.343182 2469.342725,2264.829374 2458.792921,2263.409046"/>
    <poly id="111265518#2" type="tourism.museum" color="207,245,201" fill="1" layer="-2.00" shape="2458.792921,2263.409046 2458.650823,2264.114023 2452.419410,2263.263550 2454.468576,2247.706112 2476.889629,2250.788224 2477.383536,2250.852386 2476.404482,2257.867607 2475.250539,2266.178467 2469.272645,2265.343182 2469.342725,2264.829374 2458.792921,2263.409046"/>
    <poly id="111845808" type="building.yes" color="255,230,230" fill="1" layer="-1.00" shape="1852.461672,2416.791032 1850.039063,2412.107245 1848.419454,2403.450791 1861.356190,2400.975387 1864.343016,2400.435775 1864.903576,2403.391157 1869.546876,2402.504863 1870.352318,2406.677429 1870.879563,2406.173102 1871.169667,2406.743632 1871.064721,2407.013620 1865.928879,2408.136214 1852.461672,2416.791032"/>
    <poly id="111845808#1" type="historic.heritage" color="128,255,128" fill="1" layer="-1.00" shape="1852.461672,2416.791032 1850.039063,2412.107245 1848.419454,2403.450791 1861.356190,2400.975387 1864.343016,2400.435775 1864.903576,2403.391157 1869.546876,2402.504863 1870.352318,2406.677429 1870.879563,2406.173102 1871.169667,2406.743632 1871.064721,2407.013620 1865.928879,2408.136214 1852.461672,2416.791032"/>
    <poly id="111845809" type="building.yes" color="255,230,230" fill="1" layer="-1.00" shape="1848.419454,2403.450791 1845.573913,2388.152090 1852.592285,2386.720985 1858.325249,2385.581709 1860.585358,2397.035531 1861.356190,2400.975387 1848.419454,2403.450791"/>
    <poly id="111845809#1" type="historic.heritage" color="128,255,128" fill="1" layer="-1.00" shape="1848.419454,2403.450791 1845.573913,2388.152090 1852.592285,2386.720985 1858.325249,2385.581709 1860.585358,2397.035531 1861.356190,2400.975387 1848.419454,2403.450791"/>
    <poly id="113546891" type="landuse.grass" color="194,194,130" fill="1" layer="-3.00" shape="2975.574274,1916.671412 2969.609817,1917.092553 2967.297471,1883.362871 2973.184996,1882.954987 2973.613708,1889.040895 2975.574274,1916.671412"/>
    <poly id="113617584" type="building.yes" color="255,230,230" fill="1" layer="-1.00" shape="1845.573913,2388.152090 1843.606281,2377.858490 1850.598430,2376.494880 1852.592285,2386.720985 1845.573913,2388.152090"/>
    <poly id="113617586" type="amenity.leisure" color="237,199,199" fill="1" layer="-1.00" shape="1841.110512,2364.764389 1838.608019,2351.681604 1850.969160,2349.233379 1851.843123,2353.593198 1853.563876,2362.346976 1841.110512,2364.764389"/>
    <poly id="113617586#1" type="building.yes" color="255,230,230" fill="1" layer="-1.00" shape="1841.110512,2364.764389 1838.608019,2351.681604 1850.969160,2349.233379 1851.843123,2353.593198 1853.563876,2362.346976 1841.110512,2364.764389"/>
    <poly id="113617586#2" type="historic.heritage" color="128,255,128" fill="1" layer="-1.00" shape="1841.110512,2364.764389 1838.608019,2351.681604 1850.969160,2349.233379 1851.843123,2353.593198 1853.563876,2362.346976 1841.110512,2364.764389"/>
    <poly id="113617587" type="building.yes" color="255,230,230" fill="0" layer="-1.00" shape="1843.605660,2377.836252 1841.110512,2364.764389 1853.563876,2362.346976 1855.997629,2361.889566 1856.786864,2365.984692 1855.234506,2366.283964 1855.843431,2369.460544 1857.675685,2370.121547 1858.610609,2374.902508 1850.598430,2376.494880 1843.606281,2377.858490"/>
    <poly id="114011879" type="building.yes" color="255,230,230" fill="1" layer="-1.00" shape="1852.482297,1716.906967 1864.184554,1708.179104 1870.541350,1718.027508 1866.928077,1720.320464 1867.994784,1721.759514 1865.012580,1723.990348 1864.011586,1722.638484 1858.759229,1726.412636 1852.482297,1716.906967"/>
    <poly id="114011879#1" type="historic.heritage" color="128,255,128" fill="1" layer="-1.00" shape="1852.482297,1716.906967 1864.184554,1708.179104 1870.541350,1718.027508 1866.928077,1720.320464 1867.994784,1721.759514 1865.012580,1723.990348 1864.011586,1722.638484 1858.759229,1726.412636 1852.482297,1716.906967"/>
    <poly id="114011881" type="landuse.grass" color="194,194,130" fill="1" layer="-3.00" shape="1998.272994,1694.490310 1998.281888,1683.462776 2045.684586,1683.921539 2045.578368,1696.253690 2004.316941,1695.901870 2004.302983,1694.644859 1998.272994,1694.490310"/>
    <poly id="114979719" type="amenity.fountain" color="237,199,199" fill="1" layer="-1.00" shape="3014.053249,2196.181594 3023.316153,2196.069731 3026.850941,2196.016356 3026.689669,2183.591582 3023.035141,2183.637145 3013.891947,2183.756820 3014.053249,2196.181594"/>
    <poly id="114979719#1" type="natural.water" color="181,209,209" fill="1" layer="-4.00" shape="3014.053249,2196.181594 3023.316153,2196.069731 3026.850941,2196.016356 3026.689669,2183.591582 3023.035141,2183.637145 3013.891947,2183.756820 3014.053249,2196.181594"/>
    <poly id="114979719#2" type="tourism.attraction" color="207,245,201" fill="1" layer="-2.00" shape="3014.053249,2196.181594 3023.316153,2196.069731 3026.850941,2196.016356 3026.689669,2183.591582 3023.035141,2183.637145 3013.891947,2183.756820 3014.053249,2196.181594"/>
    <poly id="115096258" type="amenity.fountain" color="237,199,199" fill="1" layer="-1.00" shape="3085.776736,1988.406880 3085.882507,1993.244342 3090.709459,1993.132996 3090.604001,1988.306654 3085.776736,1988.406880"/>
    <poly id="115096258#1" type="natural.water" color="181,209,209" fill="1" layer="-4.00" shape="3085.776736,1988.406880 3085.882507,1993.244342 3090.709459,1993.132996 3090.604001,1988.306654 3085.776736,1988.406880"/>
    <poly id="115421108" type="building.yes" color="255,230,230" fill="1" layer="-1.00" shape="3218.171133,1719.680336 3218.182862,1713.493225 3223.287453,1713.496739 3223.276025,1719.694968 3218.171133,1719.680336"/>
    <poly id="115421108#1" type="tourism.yes" color="207,245,201" fill="1" layer="-2.00" shape="3218.171133,1719.680336 3218.182862,1713.493225 3223.287453,1713.496739 3223.276025,1719.694968 3218.171133,1719.680336"/>
    <poly id="115421109" type="building.yes" color="255,230,230" fill="1" layer="-1.00" shape="3217.889927,1783.759182 3217.912070,1779.474554 3223.009878,1779.489380 3222.994756,1783.773813 3217.889927,1783.759182"/>