<?xml version="1.0" encoding="UTF-8"?>
<!-- generated on 2020-06-16 11:35:29.879193 by $Id$ via randomTrips.py
  options: 
-->
<routes xmlns:xsi="http://www.w3.org/2001/XMLSchema-instance" xsi:noNamespaceSchemaLocation="http://sumo.dlr.de/xsd/routes_file.xsd">
    <vType id="passenger" speedFactor="normc(1.00,0.10,0.20,2.00)" vClass="passenger">
    </vType>
    <trip id="veh0" depart="0.00" departLane="best" from="33275106#4" to="-154755102#1" type="passenger"/>
    <trip id="veh1" depart="2.02" departLane="best" from="142518656#0" to="115421110" type="passenger"/>
    <trip id="veh2" depart="4.04" departLane="best" from="4378522#3" to="37276374#1" type="passenger"/>
    <trip id="veh3" depart="6.06" departLane="best" from="569968836#1" to="-24456527#0" type="passenger"/>
    <trip id="veh4" depart="8.08" departLane="best" from="213185325#0" to="-166155712#0" type="passenger"/>
    <trip id="veh5" depart="10.10" departLane="best" from="110927124" to="23915869" type="passenger"/>
    <trip id="veh6" depart="12.12" departLane="best" from="-154738024" to="-8108410#0" type="passenger"/>
    <trip id="veh7" depart="14.14" departLane="best" from="33805058#0" to="250959560" type="passenger"/>
    <trip id="veh8" depart="16.16" departLane="best" from="115421111#0" to="30777828#0" type="passenger"/>
    <trip id="veh10" depart="20.20" departLane="best" from="4400460#1" to="37873577" type="passenger"/>
    <trip id="veh11" depart="22.22" departLane="best" from="8108408" to="154755092#1" type="passenger"/>
    <trip id="veh13" depart="26.26" departLane="best" from="24456690" to="8367046#1" type="passenger"/>
    <trip id="veh16" depart="32.32" departLane="best" from="51348112#1" to="303244424" type="passenger"/>
    <trip id="veh19" depart="38.38" departLane="best" from="-24230765#1" to="115849682#0" type="passenger"/>
    <trip id="veh20" depart="40.40" departLane="best" from="-29206900" to="133872754" type="passenger"/>
    <trip id="veh22" depart="44.43" departLane="best" from="186646384#2" to="-85414282#0" type="passenger"/>
    <trip id="veh24" depart="48.47" departLane="best" from="33469868" to="32233474#0" type="passenger"/>
    <trip id="veh25" depart="50.49" departLane="best" from="-620340713" to="40236578#1" type="passenger"/>
    <trip id="veh26" depart="52.51" departLane="best" from="-51774292" to="185767958#3" type="passenger"/>
    <trip id="veh27" depart="54.53" departLane="best" from="8677666" to="33469672" type="passenger"/>
    <trip id="veh28" depart="56.55" departLane="best" from="26241617" to="37276375" type="passenger"/>
    <trip id="veh29" depart="58.57" departLane="best" from="48591705" to="4400211#2" type="passenger"/>
    <trip id="veh30" depart="60.59" departLane="best" from="121935993#0" to="-166155713#3" type="passenger"/>
    <trip id="veh31" depart="62.61" departLane="best" from="154755088#0" to="130752272" type="passenger"/>
    <trip id="veh32" depart="64.63" departLane="best" from="10318488#0" to="78419226#1" type="passenger"/>
    <trip id="veh33" depart="66.65" departLane="best" from="53212168#0" to="150196042#0" type="passenger"/>
    <trip id="veh34" depart="68.67" departLane="best" from="349603488#0" to="187965761#7" type="passenger"/>
    <trip id="veh36" depart="72.71" departLane="best" from="136417821" to="129833341#0" type="passenger"/>
    <trip id="veh37" depart="74.73" departLane="best" from="303244426" to="6186310" type="passenger"/>
    <trip id="veh39" depart="78.77" departLane="best" from="9831193#1" to="23915869" type="passenger"/>
    <trip id="veh40" depart="80.79" departLane="best" from="-24456691#1" to="-213185325#5" type="passenger"/>
    <trip id="veh41" depart="82.81" departLane="best" from="-31290823#4" to="332665336#1" type="passenger"/>
    <trip id="veh42" depart="84.83" departLane="best" from="4400451#0" to="206149607#2" type="passenger"/>
    <trip id="veh43" depart="86.85" departLane="best" from="-23566877" to="185767958#3" type="passenger"/>
    <trip id="veh44" depart="88.87" departLane="best" from="9831193#0" to="24234277#4" type="passenger"/>
    <trip id="veh45" depart="90.89" departLane="best" from="8367042#1" to="50557487#0" type="passenger"/>
    <trip id="veh46" depart="92.91" departLane="best" from="-130752272" to="39590210" type="passenger"/>
    <trip id="veh48" depart="96.95" departLane="best" from="-31290823#4" to="213185325#1" type="passenger"/>
    <trip id="veh49" depart="98.97" departLane="best" from="23543178#0" to="7996806" type="passenger"/>
    <trip id="veh50" depart="100.99" departLane="best" from="53212166#4" to="130752272" type="passenger"/>
    <trip id="veh51" depart="103.01" departLane="best" from="23912128" to="-620340712#0" type="passenger"/>
    <trip id="veh53" depart="107.05" departLane="best" from="4400205#0" to="24592789#2" type="passenger"/>
    <trip id="veh54" depart="109.07" departLane="best" from="4400311" to="24456527#1" type="passenger"/>
    <trip id="veh55" depart="111.09" departLane="best" from="-109063044#0" to="151057652#3" type="passenger"/>
    <trip id="veh56" depart="113.11" departLane="best" from="-133872754" to="64487982#1" type="passenger"/>
    <trip id="veh57" depart="115.13" departLane="best" from="542512892" to="4537872" type="passenger"/>
    <trip id="veh58" depart="117.15" departLane="best" from="154755071" to="-23543178#0" type="passenger"/>
    <trip id="veh59" depart="119.17" departLane="best" from="536910374" to="7974654#2" type="passenger"/>
    <trip id="veh60" depart="121.19" departLane="best" from="-24456527#2" to="23694447" type="passenger"/>
    <trip id="veh61" depart="123.20" departLane="best" from="-23572047#1" to="4400199#0" type="passenger"/>
    <trip id="veh62" depart="125.22" departLane="best" from="4400211#0" to="-32555731" type="passenger"/>
    <trip id="veh64" depart="129.26" departLane="best" from="136417821" to="51348110#1" type="passenger"/>
    <trip id="veh65" depart="131.28" departLane="best" from="213185325#5" to="-8677666" type="passenger"/>
    <trip id="veh66" depart="133.30" departLane="best" from="24592789#1" to="414434980" type="passenger"/>
    <trip id="veh67" depart="135.32" departLane="best" from="-82548195#4" to="150031207#10" type="passenger"/>
    <trip id="veh68" depart="137.34" departLane="best" from="90439687" to="349603490#0" type="passenger"/>
    <trip id="veh69" depart="139.36" departLane="best" from="23493177" to="24037618" type="passenger"/>
    <trip id="veh71" depart="143.40" departLane="best" from="154755122#3" to="30743981#1" type="passenger"/>
    <trip id="veh72" depart="145.42" departLane="best" from="121935993#0" to="109539742#0" type="passenger"/>
    <trip id="veh73" depart="147.44" departLane="best" from="121935993#0" to="6186579#1" type="passenger"/>
    <trip id="veh74" depart="149.46" departLane="best" from="51348110#1" to="-23915964" type="passenger"/>
    <trip id="veh76" depart="153.50" departLane="best" from="109063044#0" to="-32930555#0" type="passenger"/>
    <trip id="veh77" depart="155.52" departLane="best" from="7974185#0" to="29207110" type="passenger"/>
    <trip id="veh78" depart="157.54" departLane="best" from="23571747" to="4400309" type="passenger"/>
    <trip id="veh79" depart="159.56" departLane="best" from="-26155687#1" to="206149626" type="passenger"/>
    <trip id="veh80" depart="161.58" departLane="best" from="213185325#5" to="23568269#0" type="passenger"/>
    <trip id="veh82" depart="165.62" departLane="best" from="206149591" to="154755098" type="passenger"/>
    <trip id="veh83" depart="167.64" departLane="best" from="51348112#1" to="129833347" type="passenger"/>
    <trip id="veh84" depart="169.66" departLane="best" from="-8108227#2" to="23493260#2" type="passenger"/>
    <trip id="veh85" depart="171.68" departLane="best" from="213185325#0" to="133872754" type="passenger"/>
    <trip id="veh86" depart="173.70" departLane="best" from="130752274#0" to="63566383" type="passenger"/>
    <trip id="veh87" depart="175.72" departLane="best" from="25071938" to="-23493807#1" type="passenger"/>
    <trip id="veh88" depart="177.74" departLane="best" from="9831837" to="47892504#0" type="passenger"/>
    <trip id="veh89" depart="179.76" departLane="best" from="50557487#1" to="-51718611#0" type="passenger"/>
    <trip id="veh90" depart="181.78" departLane="best" from="23694447" to="-9831193#0" type="passenger"/>
    <trip id="veh91" depart="183.80" departLane="best" from="205044667" to="-23543178#1" type="passenger"/>
    <trip id="veh92" depart="185.82" departLane="best" from="188052918#1" to="85470315" type="passenger"/>
    <trip id="veh93" depart="187.84" departLane="best" from="26237420#0" to="391820861" type="passenger"/>
    <trip id="veh94" depart="189.86" departLane="best" from="-48456085#0" to="145033134#1" type="passenger"/>
    <trip id="veh95" depart="191.88" departLane="best" from="82548195#3" to="303244429#0" type="passenger"/>
    <trip id="veh97" depart="195.92" departLane="best" from="-23493807#1" to="303245744#1" type="passenger"/>
    <trip id="veh98" depart="197.94" departLane="best" from="23914010#0" to="48654842" type="passenger"/>
    <trip id="veh100" depart="201.98" departLane="best" from="-24230765#1" to="-7974298" type="passenger"/>
    <trip id="veh101" depart="203.99" departLane="best" from="30743981#1" to="37276372#1" type="passenger"/>
    <trip id="veh102" depart="206.01" departLane="best" from="5667170#1" to="129833340#0" type="passenger"/>
    <trip id="veh103" depart="208.03" departLane="best" from="30743981#1" to="32930555#1" type="passenger"/>
    <trip id="veh104" depart="210.05" departLane="best" from="24231978" to="7631406#1" type="passenger"/>
    <trip id="veh105" depart="212.07" departLane="best" from="-9831193#0" to="389119030#0" type="passenger"/>
    <trip id="veh106" depart="214.09" departLane="best" from="129316657" to="187965761#7" type="passenger"/>
    <trip id="veh107" depart="216.11" departLane="best" from="37276372#1" to="146789538#1" type="passenger"/>
    <trip id="veh108" depart="218.13" departLane="best" from="154755088#1" to="4400194#1" type="passenger"/>
    <trip id="veh109" depart="220.15" departLane="best" from="9831835#1" to="9831193#0" type="passenger"/>
    <trip id="veh110" depart="222.17" departLane="best" from="-23915869" to="-9831193#0" type="passenger"/>
    <trip id="veh111" depart="224.19" departLane="best" from="136417821" to="7631405#1" type="passenger"/>
    <trip id="veh112" depart="226.21" departLane="best" from="55940134" to="527125160" type="passenger"/>
    <trip id="veh113" depart="228.23" departLane="best" from="186646384#1" to="-42402089#2" type="passenger"/>
    <trip id="veh114" depart="230.25" departLane="best" from="48456085#1" to="37873580#3" type="passenger"/>
    <trip id="veh115" depart="232.27" departLane="best" from="318067901#0" to="8672022#2" type="passenger"/>
    <trip id="veh117" depart="236.31" departLane="best" from="4532200#2" to="146789538#0" type="passenger"/>
    <trip id="veh118" depart="238.33" departLane="best" from="36564599" to="768603506" type="passenger"/>
    <trip id="veh121" depart="244.39" departLane="best" from="401880207#1" to="-82548195#3" type="passenger"/>
    <trip id="veh122" depart="246.41" departLane="best" from="330663743#0" to="130752272" type="passenger"/>
    <trip id="veh124" depart="250.45" departLane="best" from="4979109" to="-245997977#0" type="passenger"/>
    <trip id="veh125" depart="252.47" departLane="best" from="213185325#5" to="131916333#1" type="passenger"/>
    <trip id="veh126" depart="254.49" departLane="best" from="-115421110" to="4400205#0" type="passenger"/>
    <trip id="veh127" depart="256.51" departLane="best" from="33275106#1" to="129861628#3" type="passenger"/>
    <trip id="veh130" depart="262.57" departLane="best" from="-23915869" to="53212166#4" type="passenger"/>
    <trip id="veh131" depart="264.59" departLane="best" from="620340706#0" to="250959563" type="passenger"/>
    <trip id="veh132" depart="266.61" departLane="best" from="48586924" to="303245743" type="passenger"/>
    <trip id="veh133" depart="268.63" departLane="best" from="-42402089#2" to="-322860621#2" type="passenger"/>
    <trip id="veh134" depart="270.65" departLane="best" from="154755071" to="6186578" type="passenger"/>
    <trip id="veh135" depart="272.67" departLane="best" from="4400455#0" to="50557487#0" type="passenger"/>
    <trip id="veh136" depart="274.69" departLane="best" from="6186579#0" to="-85414282#0" type="passenger"/>
    <trip id="veh137" depart="276.71" departLane="best" from="130752274#0" to="-26237420#0" type="passenger"/>
    <trip id="veh138" depart="278.73" departLane="best" from="4400318#0" to="53212168#1" type="passenger"/>
    <trip id="veh139" depart="280.75" departLane="best" from="-154738024" to="42402090" type="passenger"/>
    <trip id="veh140" depart="282.77" departLane="best" from="154755112#2" to="686245660" type="passenger"/>
    <trip id="veh141" depart="284.78" departLane="best" from="4400460#0" to="51348099" type="passenger"/>
    <trip id="veh142" depart="286.80" departLane="best" from="4401573" to="130752272" type="passenger"/>
    <trip id="veh143" depart="288.82" departLane="best" from="4400322#0" to="-30078887" type="passenger"/>
    <trip id="veh144" depart="290.84" departLane="best" from="527349386" to="50061433" type="passenger"/>
    <trip id="veh146" depart="294.88" departLane="best" from="4400453#1" to="115421110" type="passenger"/>
    <trip id="veh147" depart="296.90" departLane="best" from="-154738024" to="-8108408" type="passenger"/>
    <trip id="veh148" depart="298.92" departLane="best" from="154755108" to="51348099" type="passenger"/>
    <trip id="veh149" depart="300.94" departLane="best" from="82548195#1" to="133872755" type="passenger"/>
    <trip id="veh150" depart="302.96" departLane="best" from="85414282#0" to="24456527#2" type="passenger"/>
    <trip id="veh151" depart="304.98" departLane="best" from="7974654#0" to="-30095780#0" type="passenger"/>
    <trip id="veh152" depart="307.00" departLane="best" from="8367042#0" to="-620340712#0" type="passenger"/>
    <trip id="veh153" depart="309.02" departLane="best" from="8108410#1" to="130752272" type="passenger"/>
    <trip id="veh154" depart="311.04" departLane="best" from="-31290823#1" to="213185325#1" type="passenger"/>
    <trip id="veh155" depart="313.06" departLane="best" from="42402089#2" to="150031207#5" type="passenger"/>
    <trip id="veh156" depart="315.08" departLane="best" from="313981600#0" to="23916033#1" type="passenger"/>
    <trip id="veh157" depart="317.10" departLane="best" from="130997388#3" to="382219929" type="passenger"/>
    <trip id="veh158" depart="319.12" departLane="best" from="-115421110" to="63566383" type="passenger"/>
    <trip id="veh159" depart="321.14" departLane="best" from="24456691#1" to="393422408#0" type="passenger"/>
    <trip id="veh160" depart="323.16" departLane="best" from="4400194#0" to="370457083" type="passenger"/>
    <trip id="veh163" depart="329.22" departLane="best" from="40236578#1" to="146789538#1" type="passenger"/>
    <trip id="veh164" depart="331.24" departLane="best" from="154755071" to="203486082" type="passenger"/>
    <trip id="veh165" depart="333.26" departLane="best" from="206149588" to="142518656#1" type="passenger"/>
    <trip id="veh166" depart="335.28" departLane="best" from="6186582#2" to="328877086#0" type="passenger"/>
    <trip id="veh167" depart="337.30" departLane="best" from="151057647#0" to="252773096#2" type="passenger"/>
    <trip id="veh169" depart="341.34" departLane="best" from="23015861#0" to="303244432#0" type="passenger"/>
    <trip id="veh171" depart="345.38" departLane="best" from="23493260#2" to="-9831193#0" type="passenger"/>
    <trip id="veh172" depart="347.40" departLane="best" from="23571747" to="6186579#1" type="passenger"/>
    <trip id="veh173" depart="349.42" departLane="best" from="4400455#0" to="-55940134" type="passenger"/>
    <trip id="veh174" depart="351.44" departLane="best" from="-24456527#2" to="24037499#0" type="passenger"/>
    <trip id="veh175" depart="353.46" departLane="best" from="32930555#2" to="154755088#1" type="passenger"/>
    <trip id="veh176" depart="355.48" departLane="best" from="4537862#0" to="4400194#0" type="passenger"/>
    <trip id="veh177" depart="357.50" departLane="best" from="-82548195#1" to="-154755102#1" type="passenger"/>
    <trip id="veh178" depart="359.52" departLane="best" from="129833341#1" to="23571567#3" type="passenger"/>
    <trip id="veh179" depart="361.54" departLane="best" from="50629722" to="-23915964" type="passenger"/>
    <trip id="veh180" depart="363.56" departLane="best" from="-8108227#2" to="37873577" type="passenger"/>
    <trip id="veh181" depart="365.57" departLane="best" from="23799989#1" to="129318319#2" type="passenger"/>
    <trip id="veh183" depart="369.61" departLane="best" from="-309839858" to="206149613" type="passenger"/>
    <trip id="veh185" depart="373.65" departLane="best" from="24037618" to="-23487084" type="passenger"/>
    <trip id="veh187" depart="377.69" departLane="best" from="23566855" to="4400456#0" type="passenger"/>
    <trip id="veh188" depart="379.71" departLane="best" from="30743982" to="7976570#1" type="passenger"/>
    <trip id="veh189" depart="381.73" departLane="best" from="569968836#0" to="32308866#0" type="passenger"/>
    <trip id="veh190" depart="383.75" departLane="best" from="40236578#0" to="23915869" type="passenger"/>
    <trip id="veh191" depart="385.77" departLane="best" from="48405468#0" to="252773096#2" type="passenger"/>
    <trip id="veh192" depart="387.79" departLane="best" from="6186576" to="4378522#0" type="passenger"/>
    <trip id="veh193" depart="389.81" departLane="best" from="23572047#1" to="129833348" type="passenger"/>
    <trip id="veh194" depart="391.83" departLane="best" from="129861628#2" to="33444803" type="passenger"/>
    <trip id="veh195" depart="393.85" departLane="best" from="4400211#0" to="24231766" type="passenger"/>
    <trip id="veh196" depart="395.87" departLane="best" from="32930555#0" to="130997388#3" type="passenger"/>
    <trip id="veh199" depart="401.93" departLane="best" from="386474285#1" to="-23571747" type="passenger"/>
    <trip id="veh200" depart="403.95" departLane="best" from="206149607#0" to="245997977#1" type="passenger"/>
    <trip id="veh201" depart="405.97" departLane="best" from="206149621" to="-85414282#0" type="passenger"/>
    <trip id="veh202" depart="407.99" departLane="best" from="206149630" to="6186579#1" type="passenger"/>
    <trip id="veh203" depart="410.01" departLane="best" from="303244424" to="378664820" type="passenger"/>
    <trip id="veh204" depart="412.03" departLane="best" from="51348106#1" to="4400202" type="passenger"/>
    <trip id="veh206" depart="416.07" departLane="best" from="51348102#1" to="7976574" type="passenger"/>
    <trip id="veh207" depart="418.09" departLane="best" from="206149628" to="4391050#2" type="passenger"/>
    <trip id="veh209" depart="422.13" departLane="best" from="115421111#1" to="109539740#0" type="passenger"/>
    <trip id="veh212" depart="428.19" departLane="best" from="328877086#0" to="-159325508#2" type="passenger"/>
    <trip id="veh213" depart="430.21" departLane="best" from="204177817" to="26519352#2" type="passenger"/>
    <trip id="veh214" depart="432.23" departLane="best" from="-154743411#2" to="33814452#0" type="passenger"/>
    <trip id="veh215" depart="434.25" departLane="best" from="-382219935" to="23566877" type="passenger"/>
    <trip id="veh216" depart="436.27" departLane="best" from="-206149607#2" to="185767958#3" type="passenger"/>
    <trip id="veh217" depart="438.29" departLane="best" from="10318488#0" to="151057652#3" type="passenger"/>
    <trip id="veh218" depart="440.31" departLane="best" from="4400199#0" to="4537872" type="passenger"/>
    <trip id="veh219" depart="442.33" departLane="best" from="130997388#0" to="-23916033#1" type="passenger"/>
    <trip id="veh220" depart="444.35" departLane="best" from="33814452#0" to="4400295#3" type="passenger"/>
    <trip id="veh221" depart="446.36" departLane="best" from="7996807#2" to="-8108410#1" type="passenger"/>
    <trip id="veh222" depart="448.38" departLane="best" from="-133872755" to="-382219939#1" type="passenger"/>
    <trip id="veh223" depart="450.40" departLane="best" from="28889303#1" to="109063044#0" type="passenger"/>
    <trip id="veh224" depart="452.42" departLane="best" from="38028022" to="4400203#1" type="passenger"/>
    <trip id="veh225" depart="454.44" departLane="best" from="-620340710" to="32108791#2" type="passenger"/>
    <trip id="veh226" depart="456.46" departLane="best" from="4400197#0" to="-30095780#0" type="passenger"/>
    <trip id="veh227" depart="458.48" departLane="best" from="4537862#1" to="8225148" type="passenger"/>
    <trip id="veh228" depart="460.50" departLane="best" from="-31290823#0" to="-154755102#2" type="passenger"/>
    <trip id="veh229" depart="462.52" departLane="best" from="154755071" to="37276374#1" type="passenger"/>
    <trip id="veh230" depart="464.54" departLane="best" from="8108408" to="188052918#0" type="passenger"/>
    <trip id="veh231" depart="466.56" departLane="best" from="39888573" to="-23915964" type="passenger"/>
    <trip id="veh232" depart="468.58" departLane="best" from="37744239#0" to="332665336#1" type="passenger"/>
    <trip id="veh234" depart="472.62" departLane="best" from="50629723" to="31291206" type="passenger"/>
    <trip id="veh236" depart="476.66" departLane="best" from="4400318#0" to="154755115#1" type="passenger"/>
    <trip id="veh237" depart="478.68" departLane="best" from="23015861#0" to="177147101#1" type="passenger"/>
    <trip id="veh238" depart="480.70" departLane="best" from="23915964" to="154755102#2" type="passenger"/>
    <trip id="veh239" depart="482.72" departLane="best" from="50629722" to="4531783" type="passenger"/>
    <trip id="veh240" depart="484.74" departLane="best" from="-303245745" to="8108227#1" type="passenger"/>
    <trip id="veh242" depart="488.78" departLane="best" from="389119030#0" to="213185325#5" type="passenger"/>
    <trip id="veh245" depart="494.84" departLane="best" from="24456691#1" to="23691831#1" type="passenger"/>
    <trip id="veh247" depart="498.88" departLane="best" from="48405468#0" to="-24232748" type="passenger"/>
    <trip id="veh248" depart="500.90" departLane="best" from="55940134" to="129318319#1" type="passenger"/>
    <trip id="veh249" depart="502.92" departLane="best" from="188052918#1" to="-165515970#1" type="passenger"/>
    <trip id="veh250" depart="504.94" departLane="best" from="51348099" to="-620340715" type="passenger"/>
    <trip id="veh251" depart="506.96" departLane="best" from="10318488#0" to="4400453#1" type="passenger"/>
    <trip id="veh252" depart="508.98" departLane="best" from="154755130" to="53212166#0" type="passenger"/>
    <trip id="veh254" depart="513.02" departLane="best" from="-130752272" to="7976480#0" type="passenger"/>
    <trip id="veh255" depart="515.04" departLane="best" from="-24456527#2" to="393422408#1" type="passenger"/>
    <trip id="veh257" depart="519.08" departLane="best" from="37744239#0" to="33814452#5" type="passenger"/>
    <trip id="veh259" depart="523.12" departLane="best" from="-245997977#1" to="110927124" type="passenger"/>
    <trip id="veh262" depart="529.17" departLane="best" from="24456527#1" to="206149615" type="passenger"/>
    <trip id="veh263" depart="531.19" departLane="best" from="4400196#0" to="154743409#1" type="passenger"/>
    <trip id="veh264" depart="533.21" departLane="best" from="382219939#0" to="130875842" type="passenger"/>
    <trip id="veh265" depart="535.23" departLane="best" from="130875842" to="-30095780#1" type="passenger"/>
    <trip id="veh266" depart="537.25" departLane="best" from="-8108227#2" to="-30095780#0" type="passenger"/>
    <trip id="veh267" depart="539.27" departLane="best" from="24456690" to="4400199#3" type="passenger"/>
    <trip id="veh268" depart="541.29" departLane="best" from="-7976574" to="100132117#1" type="passenger"/>
    <trip id="veh269" depart="543.31" departLane="best" from="23692146" to="401880206" type="passenger"/>
    <trip id="veh270" depart="545.33" departLane="best" from="146789541" to="-26237420#0" type="passenger"/>
    <trip id="veh271" depart="547.35" departLane="best" from="-8108227#2" to="115421110" type="passenger"/>
    <trip id="veh273" depart="551.39" departLane="best" from="24456690" to="130997388#3" type="passenger"/>
    <trip id="veh276" depart="557.45" departLane="best" from="527349386" to="23795527#2" type="passenger"/>
    <trip id="veh277" depart="559.47" departLane="best" from="527349386" to="30081449#3" type="passenger"/>
    <trip id="veh279" depart="563.51" departLane="best" from="-7976570#1" to="-23493807#2" type="passenger"/>
    <trip id="veh280" depart="565.53" departLane="best" from="7976480#0" to="23571567#3" type="passenger"/>
    <trip id="veh281" depart="567.55" departLane="best" from="4537870#2" to="200774391" type="passenger"/>
    <trip id="veh284" depart="573.61" departLane="best" from="8682797#0" to="-30095780#0" type="passenger"/>
    <trip id="veh285" depart="575.63" departLane="best" from="4400205#3" to="32108791#0" type="passenger"/>
    <trip id="veh286" depart="577.65" departLane="best" from="4400450#0" to="115421110" type="passenger"/>
    <trip id="veh287" depart="579.67" departLane="best" from="24231978" to="23493260#5" type="passenger"/>
    <trip id="veh288" depart="581.69" departLane="best" from="23493260#4" to="501460458#0" type="passenger"/>
    <trip id="veh289" depart="583.71" departLane="best" from="8677666" to="147144448" type="passenger"/>
    <trip id="veh291" depart="587.75" departLane="best" from="4400193#0" to="7976480#0" type="passenger"/>
    <trip id="veh292" depart="589.77" departLane="best" from="100132117#1" to="-85414282#1" type="passenger"/>
    <trip id="veh293" depart="591.79" departLane="best" from="350444359" to="-39888573" type="passenger"/>
    <trip id="veh295" depart="595.83" departLane="best" from="-115421110" to="23493260#5" type="passenger"/>
    <trip id="veh297" depart="599.87" departLane="best" from="121935993#0" to="382219929" type="passenger"/>
    <trip id="veh298" depart="601.89" departLane="best" from="382219939#0" to="23493807#5" type="passenger"/>
    <trip id="veh299" depart="603.91" departLane="best" from="37744239#0" to="63566383" type="passenger"/>
    <trip id="veh300" depart="605.93" departLane="best" from="4400448" to="332665336#1" type="passenger"/>
    <trip id="veh301" depart="607.94" departLane="best" from="35282302" to="7631406#0" type="passenger"/>
    <trip id="veh302" depart="609.96" departLane="best" from="213185326" to="25071938" type="passenger"/>
    <trip id="veh303" depart="611.98" departLane="best" from="33469868" to="6186581#2" type="passenger"/>
    <trip id="veh304" depart="614.00" departLane="best" from="-6186579#1" to="147144448" type="passenger"/>
    <trip id="veh305" depart="616.02" departLane="best" from="4400197#1" to="28889303#1" type="passenger"/>
    <trip id="veh306" depart="618.04" departLane="best" from="150031207#5" to="-31290823#1" type="passenger"/>
    <trip id="veh307" depart="620.06" departLane="best" from="7976570#0" to="23912128" type="passenger"/>
    <trip id="veh308" depart="622.08" departLane="best" from="23799989#0" to="-23916033#0" type="passenger"/>
    <trip id="veh309" depart="624.10" departLane="best" from="-176385764#0" to="206149630" type="passenger"/>
    <trip id="veh310" depart="626.12" departLane="best" from="154755102#2" to="129833347" type="passenger"/>
    <trip id="veh311" depart="628.14" departLane="best" from="48587065#0" to="30095780#1" type="passenger"/>
    <trip id="veh312" depart="630.16" departLane="best" from="-176385764#1" to="4400197#0" type="passenger"/>
    <trip id="veh313" depart="632.18" departLane="best" from="64487982#0" to="-620340714#2" type="passenger"/>
    <trip id="veh314" depart="634.20" departLane="best" from="303244429#0" to="33386769#1" type="passenger"/>
    <trip id="veh316" depart="638.24" departLane="best" from="16081930#1" to="154755085#3" type="passenger"/>
    <trip id="veh317" depart="640.26" departLane="best" from="372313445#0" to="50061433" type="passenger"/>
    <trip id="veh318" depart="642.28" departLane="best" from="154755108" to="374831955" type="passenger"/>
    <trip id="veh319" depart="644.30" departLane="best" from="150031207#3" to="7974654#0" type="passenger"/>
    <trip id="veh321" depart="648.34" departLane="best" from="23543178#1" to="150196042#0" type="passenger"/>
    <trip id="veh322" depart="650.36" departLane="best" from="154755105#0" to="8367042#0" type="passenger"/>
    <trip id="veh323" depart="652.38" departLane="best" from="206149595" to="24037475" type="passenger"/>
    <trip id="veh324" depart="654.40" departLane="best" from="8672022#4" to="36695921#1" type="passenger"/>
    <trip id="veh325" depart="656.42" departLane="best" from="4400201" to="332665336#1" type="passenger"/>
    <trip id="veh326" depart="658.44" departLane="best" from="4400203#3" to="-82548195#3" type="passenger"/>
    <trip id="veh327" depart="660.46" departLane="best" from="25071937" to="64025975#1" type="passenger"/>
    <trip id="veh328" depart="662.48" departLane="best" from="23493177" to="37873577" type="passenger"/>
    <trip id="veh333" depart="672.58" departLane="best" from="8677669#1" to="620340712#1" type="passenger"/>
    <trip id="veh334" depart="674.60" departLane="best" from="23568269#0" to="-30095780#0" type="passenger"/>
    <trip id="veh335" depart="676.62" departLane="best" from="85414282#0" to="129318319#1" type="passenger"/>
    <trip id="veh336" depart="678.64" departLane="best" from="7631406#0" to="23915869" type="passenger"/>
    <trip id="veh337" depart="680.66" departLane="best" from="542512892" to="51348099" type="passenger"/>