<?xml version="1.0" encoding="UTF-8"?>

<!-- generated on 06/16/20 11:35:29 by Eclipse SUMO duarouter Version 1.2.0
<configuration xmlns:xsi="http://www.w3.org/2001/XMLSchema-instance" xsi:noNamespaceSchemaLocation="http://sumo.dlr.de/xsd/duarouterConfiguration.xsd">

    <input>
        <net-file value="osm.net.xml"/>
        <route-files value="osm.passenger.trips.xml"/>
    </input>

    <output>
        <output-file value="osm.passenger.rou.xml"/>
        <alternatives-output value="osm.passenger.rou.alt.xml"/>
    </output>

    <time>
        <begin value="0"/>
        <end value="5000.0"/>
    </time>

    <report>
        <no-warnings value="true"/>
        <ignore-errors value="true"/>
        <no-step-log value="true"/>
    </report>

</configuration>
-->

<routes xmlns:xsi="http://www.w3.org/2001/XMLSchema-instance" xsi:noNamespaceSchemaLocation="http://sumo.dlr.de/xsd/routes_file.xsd">
    <vType id="passenger" speedFactor="normc(1.00,0.10,0.20,2.00)" vClass="passenger"/>
    <vehicle id="veh0" type="passenger" depart="0.00" departLane="best">
        <route edges="33275106#4 154755098 129318319#1 129318319#2 129318319#3 129316658 432774901 129316657 129316656 24233181#0 24233181#1 536910374 39606300 33302833 147144449 25071938 617194816 154755085#0 154755085#3 83703647#1 83703647#2 83703647#3 83703647#4 83703645 23493040 23493177 122989592#0 542512895 23493176#0 154755112#0 154755112#2 154755112#3 154755096 -8225101 -154755102#2 -154755102#1"/>
    </vehicle>
    <vehicle id="veh1" type="passenger" depart="2.02" departLane="best">
        <route edges="142518656#0 142518656#1 142518656#2 23914009#1 23914009#2 24037280 82548195#1 82548195#2 82548195#3 82548195#4 373038379 154755092#0 154755092#1 44129592 154755105#0 24037475 154755133 -51774292 42402090 7631406#2 7974298 115421110"/>
    </vehicle>
    <vehicle id="veh2" type="passenger" depart="4.04" departLane="best">
        <route edges="4378522#3 186646384#1 186646384#2 186646384#3 186646384#5 180723491#0 620340714#0 154743411#0 620340713 620340715 620340716 501460458#0 110967368#0 109539742#0 109539742#1 4391001#0 303245743 51348112#0 51348112#1 374831953#0 374831953#1 374831953#2 303245744#0 303245744#1 51348110#0 51348110#1 206149598 206149588 206149609#0 206149609#1 252773092 -303245745 -206149607#2 -206149607#1 -206149607#0 -751197246 -24231208#0 8108410#0 8108410#1 33805058#0 306387100 372313445#0 632980691 391820861 131959462 154874107#3 176385764#1 154874104 -24592789#2 -24592789#1 -130752274#1 -130752274#0 -130752273 -133872755 -133872754 -23493807#5 -23493807#2 -23493807#1 37276374#0 37276374#1"/>
    </vehicle>
    <vehicle id="veh3" type="passenger" depart="6.06" departLane="best">
        <route edges="569968836#1 64487982#0 64487982#1 64487982#2 -48456085#1 -48456085#0 51348112#0 51348112#1 374831953#0 374831953#1 374831953#2 303245744#0 303245744#1 51348106#0 51348106#1 206149613 206149615 135786926#0 -350444361#2 -8677670 -24456691#1 -24456691#0 131916333#0 131916333#1 150202769 24456527#0 -24456527#0"/>
    </vehicle>
    <vehicle id="veh4" type="passenger" depart="8.08" departLane="best">
        <route edges="213185325#0 -213185325#0 213185326 4400205#0 4400205#1 4400205#3 -4400202 110967368#0 109539742#0 109539742#1 4391001#0 303245743 48456085#0 48456085#1 23567657#0 23567657#1 166155712#0 -166155712#0"/>
    </vehicle>
    <vehicle id="veh5" type="passenger" depart="10.10" departLane="best">
        <route edges="110927124 -48405469 4400200 177480690#1 4400201 110967368#0 109539742#0 109539742#1 4391001#0 303245743 51348112#0 51348112#1 374831953#0 374831953#1 374831953#2 303245744#0 51348111 374831955 252773097 623090133#2 623090133#3 203486082 328877086#0 370457084#2 33275106#0 33275106#1 33275106#2 33275106#3 33275106#4 154755098 129318319#1 129318319#2 129318319#3 322860622#0 322860622#1 -309839858 23915869"/>
    </vehicle>
    <vehicle id="veh6" type="passenger" depart="12.12" departLane="best">
        <route edges="-154738024 373429853 -6186579#1 -6186579#0 -213185325#1 -213185325#0 213185326 4400205#0 4400205#1 4400205#3 -4400202 110967368#0 109539742#0 109539742#1 4391001#0 303245743 51348112#0 51348112#1 374831953#0 374831953#1 374831953#2 303245744#0 303245744#1 51348110#0 51348110#1 206149598 206149588 206149609#0 206149609#1 252773092 -303245745 -206149607#2 -206149607#1 -206149607#0 -751197246 -24231208#0 8108410#0 8108410#1 -8108410#1 -8108410#0"/>
    </vehicle>
    <vehicle id="veh7" type="passenger" depart="14.14" departLane="best">
        <route edges="33805058#0 306387100 372313445#0 632980691 391820861 131959462 154874107#3 176385764#1 154874104 -24592789#2 -24592789#1 -130752274#1 -130752274#0 -130752273 -133872755 -133872754 -23493807#5 -23493807#2 -23493807#1 -154755092#1 -154755092#0 -373038379 -82548195#4 -82548195#3 -82548195#2 -82548195#1 318067901#0 318067901#1 245991949#0 245991949#1 301750520 250959563 115849681 250959560"/>
    </vehicle>
    <vehicle id="veh8" type="passenger" depart="16.16" departLane="best">
        <route edges="115421111#0 115421111#1 120070269#0 42250018 42250017 4400320#1 115851528#0 115851528#1 142518652#0 142518652#1 142518652#2 32111896 142518656#0 142518656#1 142518656#2 38527899#0 30743981#1 117679358 303244429#0 303244424 23692033#0 23692033#1 25071937 4400322#0 189054412 78419224#1 78419226#0 78419226#1 401880207#0 401880207#1 5667170#0 5667170#1 328877108#0 9831835#1 30777828#0"/>
    </vehicle>
    <vehicle id="veh10" type="passenger" depart="20.20" departLane="best">
        <route edges="4400460#1 349914645#0 349914645#1 23571566#0 23571566#2 206149621 206149619 159281728#0 159281728#1 252773097 623090133#2 623090133#3 203486082 330663743#0 330663743#2 200763473 170319721#0 33386769#0 33386769#1 33444803 39606300 33302833 147144449 5667165#0 5667165#2 48591705 48591706#0 48591706#1 204025234#0 204025234#1 48587086#1 100132117#0 100132117#1 30743982 44037603 115844479#0 115844479#1 686245660 301750520 250959563 115849681 250959560 37873580#0 37873580#2 37873580#3 37873577"/>
    </vehicle>
    <vehicle id="veh11" type="passenger" depart="22.22" departLane="best">
        <route edges="8108408 37276372#0 37276372#1 33805058#0 306387100 372313445#0 632980691 391820861 131959462 154874107#3 176385764#1 154874104 -24592789#2 -24592789#1 -130752274#1 -130752274#0 -130752273 -133872755 -133872754 -23493807#5 -23493807#2 -23493807#1 -154755092#1 154755092#1"/>
    </vehicle>
    <vehicle id="veh13" type="passenger" depart="26.26" departLane="best">
        <route edges="24456690 24456691#0 24456691#1 8367042#0 8367042#1 8367042#2 8367046#1"/>
    </vehicle>
    <vehicle id="veh16" type="passenger" depart="32.32" departLane="best">
        <route edges="51348112#1 374831953#0 374831953#1 374831953#2 303245744#0 51348111 374831955 252773097 623090133#2 623090133#3 203486082 330663743#0 330663743#2 200763473 170319721#0 33386769#0 33386769#1 33444803 39606300 33302833 147144449 5667165#0 5667165#2 48591705 48591706#0 48591706#1 204025234#0 204025234#1 48587086#1 100132117#0 100132117#1 30743982 44037603 32233474#0 142518656#2 38527899#0 30743981#1 117679358 303244429#0 303244424"/>
    </vehicle>
    <vehicle id="veh19" type="passenger" depart="38.38" departLane="best">
        <route edges="-24230765#1 -24230765#0 8672022#4 8672022#5 37276372#0 37276372#1 33805058#0 306387100 372313445#0 632980691 391820861 131959462 154874107#3 176385764#1 154874104 -24592789#2 -24592789#1 -130752274#1 -130752274#0 -130752273 -133872755 -133872754 -23493807#5 -23493807#2 -23493807#1 -154755092#1 -154755092#0 -373038379 -82548195#4 -82548195#3 -82548195#2 -82548195#1 318067901#0 318067901#1 245991949#0 245991949#1 301750520 250959563 245991947 115849682#0"/>
    </vehicle>
    <vehicle id="veh20" type="passenger" depart="40.40" departLane="best">
        <route edges="-29206900 29207110 36564599 51972701 23567119#0 23567119#1 40236119 33469672 366994602 33444801 370457083 33444803 39606300 33302833 147144449 5667165#0 5667165#2 48591705 48591706#0 48591706#1 204025234#0 204025234#1 48587086#1 100132117#0 100132117#1 30743982 44037603 32233474#0 142518656#2 23914009#1 23914009#2 24037280 82548195#1 82548195#2 82548195#3 82548195#4 373038379 154755092#0 154755092#1 23493807#1 23493807#2 23493807#5 133872754"/>
    </vehicle>
    <vehicle id="veh22" type="passenger" depart="44.43" departLane="best">
        <route edges="186646384#2 186646384#3 186646384#5 180723491#0 620340714#0 571407838#0 389119030#0 389119030#2 23799989#0 23799989#1 154755088#0 154755088#1 131651824 130997388#0 130997388#1 130997388#2 130659365 393422408#0 393422408#1 4400215#0 150031207#5 150031207#10 23493261#1 28542995 303244432#0 303244432#1 303244432#3 -109063044#1 -109063044#0 -85414282#1 -85414282#0"/>
    </vehicle>
    <vehicle id="veh24" type="passenger" depart="48.47" departLane="best">
        <route edges="33469868 401880207#0 401880207#1 5667170#0 71900685 200763473 170319721#0 33386769#0 33386769#1 33444803 39606300 33302833 147144449 5667165#0 5667165#2 48591705 48591706#0 48591706#1 204025234#0 204025234#1 48587086#1 100132117#0 100132117#1 30743982 44037603 32233474#0"/>
    </vehicle>
    <vehicle id="veh25" type="passenger" depart="50.49" departLane="best">
        <route edges="-620340713 620340713 620340715 620340716 501460458#0 110967368#0 109539742#0 109539742#1 4391001#0 303245743 51348112#0 51348112#1 374831953#0 374831953#1 374831953#2 303245744#0 303245744#1 51348106#0 51348106#1 206149613 206149615 135786926#0 166615190#0 8677666 349914644 23572047#0 23572047#1 204177817 7976570#0 7976570#1 40236578#0 40236578#1"/>
    </vehicle>
    <vehicle id="veh26" type="passenger" depart="52.51" departLane="best">
        <route edges="-51774292 42402089#4 7974654#0 7974654#1 7974654#2 154755105#0 154755105#1 154755105#2 6186582#2 318067901#0 318067901#1 32111896 142518656#0 142518656#1 142518656#2 38527899#0 30743981#1 117679358 303244429#0 303244424 23692033#0 23692033#1 25071937 4400322#0 189054412 78419224#1 78419226#0 78419226#1 401880207#0 401880207#1 5667170#0 5667170#1 370457085#0 203486081 48654842 51348099 401880206 313982939 623090131 252773096#0 252773096#2 51348101 206149624 206149626 206149628 135788128#1 135788128#2 135788128#3 135788128#4 33814452#0 33814452#1 33814452#2 33814452#4 33814452#5 349603488#0 349603488#1 4391050#0 4391050#2 349603490#0 620340717#0 -620340716 -620340715 -620340713 -154743411#2 -620340714#2 -180723491#1 -180723489#1 -180723490 -620340710 -620340712#1 -620340712#0 -620340706#1 -620340711#2 185767958#1 185767958#3"/>
    </vehicle>
    <vehicle id="veh27" type="passenger" depart="54.53" departLane="best">
        <route edges="8677666 -8677666 -166615190#2 23571566#0 23571566#2 206149621 206149619 159281728#0 159281728#1 252773097 623090133#2 623090133#3 203486082 330663743#0 330663743#2 200763473 170319721#0 33386769#0 33386769#1 33444803 39606300 4400306#1 562786004 4400309 40236119 33469672"/>
    </vehicle>
    <vehicle id="veh28" type="passenger" depart="56.55" departLane="best">
        <route edges="26241617 -29206900 29207110 36564599 51972701 23567119#0 23567119#1 40236119 33469672 366994602 33444801 370457083 33444803 39606300 33302833 147144449 25071938 617194816 154755085#0 4400311 4400310 145033134#1 32108791#0 32108791#2 23493260#4 23493260#5 23493260#8 303244426 768603507 136417822 37276375"/>
    </vehicle>
    <vehicle id="veh29" type="passenger" depart="58.57" departLane="best">
        <route edges="48591705 146789541 768602479 5667167 25071937 4400322#0 189054412 78419224#1 78419226#0 78419226#1 401880207#0 401880207#1 5667170#0 5667170#1 370457085#0 203486081 48654842 51348099 401880206 313982939 623090131 252773096#0 252773096#2 51348101 206149624 206149626 206149628 135788128#1 135788128#2 135788128#3 135788128#4 33814452#0 33814452#1 33814452#2 33814452#4 33814452#5 349603488#0 349603488#1 4391050#0 4391050#2 349603490#0 620340717#0 -620340716 -620340715 -620340713 -154743411#2 571407838#0 389119030#0 389119030#2 23799989#0 23799989#1 154755088#0 154755088#1 131651824 4400211#0 4400211#1 4400211#2"/>
    </vehicle>
    <vehicle id="veh30" type="passenger" depart="60.59" departLane="best">
        <route edges="121935993#0 121935993#1 121935993#2 121935993#3 4400318#2 23568083 136417821 100132117#0 100132117#1 30743982 44037603 32233474#0 142518656#2 38527899#0 30743981#1 117679358 303244429#0 303244424 23692033#0 23692033#1 25071937 4400322#0 189054412 78419225#0 33444803 39606300 4400306#1 562786004 4400309 40236119 29214406 -382219929 -382219939#1 -382219939#0 -382219935 -166155713#3"/>
    </vehicle>
    <vehicle id="veh31" type="passenger" depart="62.61" departLane="best">
        <route edges="154755088#0 154755088#1 23800192 186646384#0 186646384#1 186646384#2 186646384#3 186646384#5 180723491#0 620340714#0 154743411#0 620340713 620340715 620340716 501460458#0 110967368#0 109539742#0 109539742#1 4391001#0 303245743 51348112#0 51348112#1 374831953#0 374831953#1 374831953#2 303245744#0 303245744#1 51348110#0 51348110#1 206149598 206149588 206149609#0 206149609#1 252773092 -303245745 -206149607#2 -206149607#1 -206149607#0 -751197246 -24231208#0 8108410#0 8108410#1 33805058#0 306387100 372313445#0 632980691 391820861 131959462 154874107#3 176385764#1 154874104 -24592789#2 -24592789#1 7631407#0 7631407#1 130752272"/>
    </vehicle>
    <vehicle id="veh32" type="passenger" depart="64.63" departLane="best">
        <route edges="10318488#0 4400322#0 189054412 78419224#1 78419226#0 78419226#1"/>
    </vehicle>
    <vehicle id="veh33" type="passenger" depart="66.65" departLane="best">
        <route edges="53212168#0 53212168#1 23800804#1 130875842 4400200 177480690#1 4400201 110967368#0 109539742#0 109539740#0 527125160 7996807#1 7996807#2 525356719 131916333#0 131916333#1 150202769 7976480#0 7976480#1 150196042#0"/>
    </vehicle>
    <vehicle id="veh34" type="passenger" depart="68.67" departLane="best">
        <route edges="349603488#0 349603488#1 4391050#0 4391050#2 349603490#0 620340717#0 -620340716 -620340715 -620340713 -154743411#2 -620340714#2 -180723491#1 -180723489#1 -180723490 -620340710 -620340712#1 -620340712#0 600108058#0 187965761#0 187965761#1 187965761#2 187965761#3 187965761#4 187965761#6 187965761#7"/>
    </vehicle>
    <vehicle id="veh36" type="passenger" depart="72.71" departLane="best">
        <route edges="136417821 100132117#0 100132117#1 30743982 44037603 32233474#0 142518656#2 38527899#0 30743981#1 117679358 303244429#0 303244424 303244422#0 48586924 188052918#0 188052918#1 154755085#0 154755085#3 83703647#1 83703647#2 83703647#3 83703647#4 83703645 23493040 23493177 122989592#0 542512895 154755115#1 147148321 23493179#0 50629723 50629722 129833340#0 129833341#0"/>
    </vehicle>
    <vehicle id="veh37" type="passenger" depart="74.73" departLane="best">
        <route edges="303244426 768603506 48587065#0 48587065#1 146789540#0 146789540#1 146789541 768602479 5667167 25071937 4400322#0 189054412 78419224#1 78419226#0 78419226#1 401880207#0 401880207#1 5667170#0 5667170#1 370457085#0 203486081 48654842 51348099 401880206 313982939 623090131 252773096#0 252773096#2 51348101 206149624 206149626 206149628 135788128#1 135788128#2 135788128#3 135788128#4 33814452#0 33814452#1 33814452#2 33814452#4 33814452#5 349603488#0 349603488#1 4391050#0 4391050#2 349603490#0 -389119032 -4400205#2 -4400205#0 6186310"/>
    </vehicle>
    <vehicle id="veh39" type="passenger" depart="78.77" departLane="best">
        <route edges="9831193#1 9831193#3 350444359 23571566#0 23571566#2 206149621 206149619 159281728#0 159281728#1 252773097 623090133#2 623090133#3 203486082 328877086#0 370457084#2 33275106#0 33275106#1 33275106#2 33275106#3 33275106#4 154755098 129318319#1 129318319#2 129318319#3 322860622#0 322860622#1 -309839858 23915869"/>
    </vehicle>
    <vehicle id="veh40" type="passenger" depart="80.79" departLane="best">
        <route edges="-24456691#1 -24456691#0 131916333#0 131916333#1 150202769 6186581#0 6186581#1 6186581#2 6186576 213185325#0 213185325#1 213185325#5 -213185325#5"/>
    </vehicle>
    <vehicle id="veh41" type="passenger" depart="82.81" departLane="best">
        <route edges="-31290823#4 -31290823#1 -31290823#0 8367046#1 31291206 4400460#1 349914645#0 349914645#1 23571566#0 23571566#2 206149621 206149619 159281728#0 159281728#1 252773097 623090133#2 623090133#3 203486082 330663743#0 330663743#2 200763473 170319721#0 33386769#0 33386769#1 33444803 39606300 33302833 147144449 5667165#0 5667165#2 48591705 48591706#0 48591706#1 204025234#0 204025234#1 48587086#1 100132117#0 100132117#1 30743982 44037603 115844479#0 115844479#1 686245660 301750520 250959563 115849681 250959560 47892504#0 47892504#1 47892504#2 23487084 332665336#0 332665336#1"/>
    </vehicle>
    <vehicle id="veh42" type="passenger" depart="84.83" departLane="best">
        <route edges="4400451#0 4400451#1 4400451#2 4400450#0 4400450#1 64487982#0 64487982#1 64487982#2 -48456085#1 -48456085#0 51348112#0 51348112#1 374831953#0 374831953#1 374831953#2 303245744#0 303245744#1 51348110#0 51348110#1 206149598 206149588 206149609#0 206149609#1 252773092 -303245745 -206149607#2 206149607#2"/>
    </vehicle>
    <vehicle id="veh43" type="passenger" depart="86.85" departLane="best">
        <route edges="-23566877 23566855 23916033#0 23916033#1 23915966 9831837 432774901 129316657 129316656 30777828#0 30777828#1 414434980 401880207#1 5667170#0 5667170#1 370457085#0 203486081 48654842 51348099 401880206 313982939 623090131 252773096#0 252773096#2 51348101 206149624 206149626 206149628 135788128#1 135788128#2 135788128#3 135788128#4 33814452#0 33814452#1 33814452#2 33814452#4 33814452#5 349603488#0 349603488#1 4391050#0 4391050#2 349603490#0 620340717#0 -620340716 -620340715 -620340713 -154743411#2 -620340714#2 -180723491#1 -180723489#1 -180723490 -620340710 -620340712#1 -620340712#0 -620340706#1 -620340711#2 185767958#1 185767958#3"/>
    </vehicle>
    <vehicle id="veh44" type="passenger" depart="88.87" departLane="best">
        <route edges="9831193#0 -9831193#0 33814452#0 33814452#1 33814452#2 33814452#4 33814452#5 349603488#0 349603488#1 4391050#0 4391050#2 349603490#0 -4400202 -159325508#2 24234277#0 24234277#1 24234277#2 24234277#3 24234277#4"/>
    </vehicle>
    <vehicle id="veh45" type="passenger" depart="90.89" departLane="best">
        <route edges="8367042#1 8367042#2 8367046#1 31291206 4400460#1 349914645#0 349914645#1 23571566#0 23571566#2 206149621 206149619 159281728#0 159281728#1 252773097 623090133#2 623090133#3 203486082 330663743#0 330663743#2 200763473 170319721#0 33386769#0 33386769#1 33444803 39606300 33302833 147144449 25071938 617194816 154755085#0 4400311 4400310 145033134#1 32108791#0 32108791#2 23493260#4 23493260#5 23493260#8 303244426 768603506 48587065#0 48587065#1 50557487#0"/>
    </vehicle>
    <vehicle id="veh46" type="passenger" depart="92.91" departLane="best">
        <route edges="-130752272 -7631407#1 -7631407#0 -130752274#1 -130752274#0 -130752273 -133872755 -133872754 -23493807#5 -23493807#2 -23493807#1 -154755092#1 -154755092#0 -373038379 -82548195#4 -82548195#3 -82548195#2 -82548195#1 318067901#0 318067901#1 32111896 142518656#0 142518656#1 142518656#2 38527899#0 30743981#1 117679358 303244429#0 303244424 303244422#0 48586924 188052918#0 188052918#1 154755085#0 154755085#3 83703647#1 83703647#2 83703647#3 83703647#4 83703645 23493040 23493177 122989592#0 542512895 23493176#0 154755112#0 154755112#2 154755112#3 154755096 -8225101 -154755102#2 -154755102#1 -154755102#0 39590210"/>
    </vehicle>
    <vehicle id="veh48" type="passenger" depart="96.95" departLane="best">
        <route edges="-31290823#4 -31290823#1 -31290823#0 8367046#1 31291206 4400460#1 349914645#0 349914645#1 -350444361#2 -8677670 -24456691#1 -24456691#0 131916333#0 131916333#1 150202769 6186581#0 6186581#1 6186581#2 6186576 213185325#0 213185325#1"/>
    </vehicle>
    <vehicle id="veh49" type="passenger" depart="98.97" departLane="best">
        <route edges="23543178#0 23543178#1 23543178#2 7976572#2 -23572047#1 -23572047#0 -349914644 -8677666 -166615190#2 -350444361#2 -8677670 -24456691#1 7996806"/>
    </vehicle>
    <vehicle id="veh50" type="passenger" depart="100.99" departLane="best">
        <route edges="53212166#4 28542995 303244432#0 303244432#1 303244432#3 23493260#0 23493260#1 23493260#2 23493260#4 23493260#5 23493260#8 303244426 768603506 4400319 48587087 48587086#0 48587086#1 100132117#0 100132117#1 30743982 44037603 32233474#0 142518656#2 23914009#1 23914009#2 24037280 82548195#1 82548195#2 82548195#3 82548195#4 373038379 154755092#0 154755092#1 23493807#1 23493807#2 23493807#5 133872754 4532200#0 4532200#1 4532200#2 39888572#0 39888572#1 130752272"/>
    </vehicle>
    <vehicle id="veh51" type="passenger" depart="103.01" departLane="best">
        <route edges="23912128 -23912128 4537892#1 4537892#2 37276374#5 4537870#0 4537870#1 4537870#2 4537870#3 4537870#4 8076095#0 8076097#3 23694447 130752274#0 130752274#1 24592789#1 24592789#2 -154874104 -176385764#1 -176385764#0 -131959462 -391820861 -33971538 -372313445#1 -306387100 -33805058#1 -8108410#1 -8108410#0 24231208#0 24231208#1 206149607#0 206149607#1 206149607#2 303245745 51348105#0 51348105#2 303245746 206149593 206149591 135788128#0 135788128#1 135788128#2 135788128#3 135788128#4 33814452#0 33814452#1 33814452#2 33814452#4 33814452#5 349603488#0 349603488#1 4391050#0 4391050#2 349603490#0 620340717#0 -620340716 -620340715 -620340713 -154743411#2 -620340714#2 -180723491#1 -180723489#1 -180723490 -620340710 -620340712#1 -620340712#0"/>
    </vehicle>
    <vehicle id="veh53" type="passenger" depart="107.05" departLane="best">
        <route edges="4400205#0 4400205#1 4400205#3 -4400202 110967368#0 109539742#0 109539742#1 4391001#0 303245743 51348112#0 51348112#1 374831953#0 374831953#1 374831953#2 303245744#0 303245744#1 51348110#0 51348110#1 206149598 206149588 206149609#0 206149609#1 252773092 -303245745 -206149607#2 -206149607#1 -206149607#0 -751197246 -24231208#0 8108410#0 8108410#1 33805058#0 306387100 372313445#0 632980691 391820861 131959462 154874107#3 176385764#1 154874104 -24592789#2 24592789#2"/>
    </vehicle>
    <vehicle id="veh54" type="passenger" depart="109.07" departLane="best">
        <route edges="4400311 4400310 145033134#1 32108791#0 32108791#2 23493260#4 23493260#5 23493260#8 303244426 768603506 48587065#0 48587065#1 146789540#0 146789540#1 146789541 768602479 5667167 25071937 4400322#0 189054412 78419224#1 78419226#0 78419226#1 401880207#0 401880207#1 5667170#0 5667170#1 370457085#0 203486081 48654842 51348099 401880206 313982939 623090131 252773096#0 252773096#2 313982938 206149623 206149617 206149630 135786926#0 -350444361#2 -8677670 -24456691#1 -24456691#0 131916333#0 131916333#1 150202769 24456527#0 24456527#1"/>
    </vehicle>
    <vehicle id="veh55" type="passenger" depart="111.09" departLane="best">
        <route edges="-109063044#0 109063044#0 109063044#1 23493260#0 23493260#1 23493260#2 23493260#4 23493260#5 23493260#8 303244426 768603506 48587065#0 48587065#1 146789540#0 146789540#1 146789541 768602479 5667167 25071937 4400322#0 189054412 78419224#1 78419226#0 78419226#1 401880207#0 401880207#1 5667170#0 5667170#1 370457085#0 203486081 48654842 51348099 401880206 313982939 623090131 252773096#0 252773096#2 51348101 206149624 206149626 206149628 135788128#1 135788128#2 135788128#3 135788128#4 33814452#0 33814452#1 33814452#2 33814452#4 33814452#5 349603488#0 349603488#1 4391050#0 4391050#2 349603490#0 620340717#0 -620340716 -620340715 -620340713 -154743411#2 -620340714#2 -180723491#1 -180723489#1 -180723490 -620340710 -620340712#1 -620340712#0 -620340706#1 -620340711#2 31691655 154743409#0 154743409#1 151057652#3"/>
    </vehicle>
    <vehicle id="veh56" type="passenger" depart="113.11" departLane="best">
        <route edges="-133872754 133872754 133872755 23694447 130752274#0 130752274#1 24592789#1 24592789#2 -154874104 -176385764#1 -176385764#0 -131959462 -391820861 -33971538 -372313445#1 -306387100 -33805058#1 -8108410#1 -8108410#0 24231208#0 24231208#1 206149607#0 206149607#1 206149607#2 303245745 51348105#0 51348105#2 206149595 206149602 206149605 159281728#0 159281728#1 252773097 4400453#0 4400453#1 4400450#0 4400450#1 64487982#0 64487982#1"/>
    </vehicle>
    <vehicle id="veh57" type="passenger" depart="115.13" departLane="best">
        <route edges="542512892 150031207#0 150031207#2 150031207#3 150031207#5 150031207#10 23493261#1 28542995 303244432#0 303244432#1 303244432#3 23493260#0 23493260#1 23493260#2 23493260#4 23493260#5 23493260#8 303244426 768603506 4400319 48587087 48587086#0 48587086#1 100132117#0 100132117#1 30743982 44037603 32233474#0 142518656#2 23914009#1 23914009#2 24037280 82548195#1 82548195#2 82548195#3 82548195#4 373038379 154755092#0 154755092#1 23493807#1 23493807#2 4537872"/>
    </vehicle>
    <vehicle id="veh58" type="passenger" depart="117.15" departLane="best">
        <route edges="154755071 186463490#1 186463490#2 154755102#0 154755102#1 154755102#2 -8096211#2 -8096211#1 150031207#10 23493261#1 28542995 303244432#0 303244432#1 303244432#3 23493260#0 23493260#1 23493260#2 23493260#4 23493260#5 23493260#8 303244426 768603506 48587065#0 48587065#1 146789540#0 146789540#1 146789541 768602479 5667167 25071937 4400322#0 189054412 78419224#1 78419226#0 78419226#1 401880207#0 401880207#1 5667170#0 5667170#1 370457085#0 203486081 48654842 51348099 401880206 313982939 623090131 51348102#0 51348102#1 51348109 252773092 -303245745 -206149607#2 -206149607#1 -206149607#0 -751197246 -24231208#0 8108410#0 8108410#1 -8108410#1 -8108410#0 -206149612#1 -7976570#1 -7976570#0 7976572#0 7976572#1 -23543178#2 -23543178#1 -23543178#0"/>
    </vehicle>
    <vehicle id="veh59" type="passenger" depart="119.17" departLane="best">
        <route edges="536910374 39606300 33302833 147144449 5667165#0 5667165#2 48591705 48591706#0 48591706#1 204025234#0 204025234#1 48587086#1 100132117#0 100132117#1 30743982 44037603 32233474#0 142518656#2 23914009#1 23914009#2 24037280 82548195#1 82548195#2 82548195#3 82548195#4 373038379 154755092#0 154755092#1 44129592 154755105#0 24037475 154755133 7974654#0 7974654#1 7974654#2"/>
    </vehicle>
    <vehicle id="veh60" type="passenger" depart="121.19" departLane="best">
        <route edges="-24456527#2 -24456527#1 -24456527#0 7976480#0 7976480#1 150196042#0 150196042#1 4400205#3 -4400202 110967368#0 109539742#0 109539742#1 4391001#0 303245743 51348112#0 51348112#1 374831953#0 374831953#1 374831953#2 303245744#0 303245744#1 51348110#0 51348110#1 206149598 206149588 206149609#0 206149609#1 252773092 -303245745 -206149607#2 -206149607#1 -206149607#0 -751197246 -24231208#0 8108410#0 8108410#1 33805058#0 306387100 372313445#0 632980691 391820861 131959462 154874107#3 176385764#1 154874104 -24592789#2 -24592789#1 -130752274#1 -130752274#0 -130752273 23694447"/>
    </vehicle>
    <vehicle id="veh61" type="passenger" depart="123.20" departLane="best">
        <route edges="-23572047#1 -23572047#0 -349914644 -8677666 -166615190#2 -350444361#2 -9831193#3 -9831193#1 -9831193#0 33814452#0 33814452#1 33814452#2 33814452#4 33814452#5 349603488#0 349603488#1 4391050#0 4391050#2 349603490#0 620340717#0 -620340716 -620340715 -620340713 -154743411#2 571407838#0 389119030#0 389119030#2 23799989#0 23799989#1 48405469 48405468#0 48405468#1 4400194#0 4400194#1 4400199#0"/>
    </vehicle>
    <vehicle id="veh62" type="passenger" depart="125.22" departLane="best">
        <route edges="4400211#0 4400211#1 4400211#2 4400211#3 4400211#5 130875842 4400200 177480690#1 4400201 110967368#0 109539742#0 109539742#1 4391001#0 303245743 51348112#0 51348112#1 374831953#0 374831953#1 374831953#2 303245744#0 303245744#1 51348110#0 51348110#1 206149598 206149588 206149609#0 206149609#1 252773092 -303245745 -206149607#2 -206149607#1 -206149607#0 -751197246 -24231208#0 8108410#0 8108410#1 33805058#0 306387100 372313445#0 632980691 391820861 131959462 154874107#3 176385764#1 154874104 -24592789#2 -24592789#1 386474285#1 32555731 8108227#0 -8108227#0 -32555731"/>
    </vehicle>
    <vehicle id="veh64" type="passenger" depart="129.26" departLane="best">
        <route edges="136417821 100132117#0 100132117#1 30743982 44037603 32233474#0 142518656#2 38527899#0 30743981#1 117679358 303244429#0 303244424 23692033#0 23692033#1 25071937 4400322#0 189054412 78419224#1 78419226#0 78419226#1 401880207#0 401880207#1 5667170#0 71900685 200763473 33444804#0 -366994602 4400455#0 4400455#1 4400455#2 23799644 4400456#0 4400456#1 4400450#0 4400450#1 64487982#0 64487982#1 64487982#2 -48456085#1 -48456085#0 51348112#0 51348112#1 374831953#0 374831953#1 374831953#2 303245744#0 303245744#1 51348110#0 51348110#1"/>
    </vehicle>
    <vehicle id="veh65" type="passenger" depart="131.28" departLane="best">
        <route edges="213185325#5 -213185325#5 -213185325#1 -213185325#0 213185326 4400205#0 4400205#1 4400205#3 -4400202 110967368#0 109539742#0 109539742#1 4391001#0 303245743 51348112#0 51348112#1 374831953#0 374831953#1 374831953#2 303245744#0 303245744#1 51348106#0 51348106#1 206149613 206149615 135786926#0 166615190#0 8677666 -8677666"/>
    </vehicle>
    <vehicle id="veh66" type="passenger" depart="133.30" departLane="best">
        <route edges="24592789#1 24592789#2 -154874104 -176385764#1 -176385764#0 -131959462 -391820861 -33971538 -372313445#1 -306387100 -33805058#1 -8108410#1 -8108410#0 24231208#0 24231208#1 206149607#0 206149607#1 206149607#2 303245745 51348105#0 51348105#2 206149595 206149602 206149605 159281728#0 159281728#1 252773097 623090133#2 623090133#3 203486082 328877086#0 9831835#1 30777828#0 30777828#1 414434980"/>
    </vehicle>
    <vehicle id="veh67" type="passenger" depart="135.32" departLane="best">